1
    SWAT Dec 23 2016    VER 2016/Rev 664                                                                 0/ 0/   0      0: 0: 0

    General Input/Output section (file.cio):                                        
    2020/9/9 0:00:00 ARCGIS-SWAT interface AV                                       
                                                                                    
         Number of years in run:   17
         Area of watershed:     4246.146 km2
         Random number generator cycles: 0, use default numbers

         Initial random number seed: wet/dry day prob        748932582
         Initial random number seed: radiation              1948832765
         Initial random number seed: precipitation           857034417
         Initial random number seed: 0.5 hr rainfall          67377721
         Initial random number seed: wind speed              366304404
         Initial random number seed: irrigation             1094585182
         Initial random number seed: relative humidity      1767585417
         Initial random number seed: max temperature         608439319
         Initial random number seed: min temperature         592757081

         Precipitation data used in run:
          Multiple gages read for watershed
             Daily rainfall data used

         Temperature data used in run:
          Multiple gages read for watershed

         PET method used: Penman-Monteith

         Rainfall/Runoff/Routing Option:
          Daily rainfall data
          Runoff estimated with curve number method
          Daily stream routing
           Variable Storage routing method
           Channel dimensions remain constant
           Subbasin algae/CBOD loadings not modeled
           In-stream nutrient transformations modeled using QUAL2E equations

         Subbasin Input Summary:
          Sub Latitude  Elev(m) #HRUs Ponds Elevbnds Wetlnd
            1    28.52   449.41    24                   
            2    28.52   733.66    42                   
            3    28.52   383.59    24                   
            4    28.52   296.49    32                   
            5    28.52   355.14    24                   
            6    28.52   396.84    18                   
            7    28.52   152.46     4                   
            8    28.52   228.08    22                   
            9    28.52   317.58    25                   
           10    28.52   204.56    24                   
           11    28.52   693.02    36                   
           12    28.52   408.39    28                   
           13    28.52   178.16    11                   
           14    28.52   257.11    20                   
           15    28.52   180.93    10                   
           16    28.52   112.17     1                   
           17    28.52   158.13    14                   
           18    28.52   275.78    20                   
           19    28.52   359.02    15                   
           20    28.52   671.78    21                   
           21    28.52   715.31    35                   
           22    28.52   531.65    14                   
           23    28.52   440.21    43                   
           24    28.52   147.27    22                   
           25    28.46   746.03    32                   
           26    28.46   351.54    15                   
           27    28.46   128.31    15                   
           28    28.46   284.43    25                   
           29    28.46   138.01    21                   
           30    28.46   382.00    35                   
           31    28.46   449.13    24                   
           32    28.46   255.84    32                   
           33    28.46   455.60    38                   
           34    28.46   473.38    41                   
           35    28.46   119.16    19                   
           36    28.46   248.41    30                   
           37    28.46   366.91    33                   
           38    28.46   463.55    36                   
           39    28.46   100.45    14                   
           40    28.46   106.23    17                   
           41    28.46   157.26    22                   
           42    28.46   188.95    37                   
           43    28.46   374.14    49                   
           44    28.46   139.93    40                   
           45    28.46   179.81    25                   
           46    28.46   141.86    20                   
           47    28.46   317.84    44                   
           48    28.46   388.28    12                   
           49    28.46   287.79    22                   
           50    28.46   134.36    21                   
           51    28.46   320.12    26                   
           52    28.46   394.91    18                   
           53    28.46   312.89    17                   
           54    28.46    43.45    32                   
           55    28.46    53.33    34                   
           56    28.46   157.21    12                   
           57    28.46   152.11    11                   
           58    28.46   129.27    11                   
           59    28.46   362.69    24                   
           60    28.46   195.21     9                   
           61    28.46   283.44    23                   
           62    28.46   171.05    44                   
           63    28.46   142.37    11                   
           64    28.46    42.64    10                   
           65    28.46    57.71    31                   
           66    28.46    50.92    10                   
           67    28.51    36.50     5                   
           68    28.51    40.92    12                   
           69    28.51    44.80    22                   
           70    28.51   211.96    30                   
           71    28.51   122.29    23                   
           72    28.51   164.64    26                   
           73    28.51   104.69    19                   
           74    28.51    34.44     2                   
           75    28.51   181.55    21                   
           76    28.51    87.40    10                   
           77    28.51   173.46    23                   
           78    28.51   249.41    27                   
           79    28.51    61.37    36                   
           80    28.51   259.86    22                   
           81    28.51   136.36    24                   
           82    28.51   129.80     6                   
           83    28.51    63.51    25                   
           84    28.51    47.88    29                   
           85    28.51   187.54    20                   
           86    28.51   143.05    27                   
           87    28.51   144.50    26                   
           88    28.51   164.26    10                   
           89    28.51    51.95    16                   
           90    28.51   133.64    24                   
           91    28.47   207.02    18                   
           92    28.47    83.50    29                   
           93    28.47    51.28     4                   
           94    28.47    95.83    19                   
           95    28.47    61.02    14                   
           96    28.47    91.75    15                   
           97    28.47   100.43    24                   
           98    28.47   161.27    21                   
           99    28.47    79.86    39                   
          100    28.47    67.62    20                   
          101    28.47    54.77    19                   
          102    28.47    76.09    33                   
          103    28.47    63.03    36                   
          104    28.47    72.76    24                   
          105    28.47    78.42    20                   
          106    28.47    67.34    27                   
          107    28.47    98.03    29                   
          108    28.47    79.99    10                   
          109    28.47   159.79    28                   
          110    28.47   166.60    36                   
          111    28.47    67.12    16                   
          112    28.47    55.04     8                   
          113    28.47   153.28    22                   
          114    28.47   115.14    29                   
          115    28.47   184.58    32                   
          116    28.47   223.28    12                   
          117    28.47    59.86    11                   
          118    28.47    77.29    13                   
          119    28.47    77.70    45                   
          120    28.47    74.90     8                   
          121    28.47   211.46    22                   
          122    28.47    77.04    23                   
          123    28.50   115.15    10                   
          124    28.50    72.97    19                   
          125    28.50   100.88    10                   
          126    28.50    93.81    16                   
          127    28.50    86.90    13                   
          128    28.50   420.02    20                   
          129    28.50   159.10    20                   
          130    28.50   144.50     4                   
          131    28.50   138.69    16                   
          132    28.50   382.15    40                   
          133    28.50   319.77    26                   

         HRU Input Summary Table 1:
          Sub   HRU   Area(ha) Slope SlpLgth(m) Ovrlnd_N CondII_CN TimeConc(hr) ESCO EPCO
            1      1    1006.71 0.325       9.15    0.100     79.00        0.259 0.95 1.00
            1      2      50.30 0.065      60.98    0.100     79.00        0.387 0.95 1.00
            1      3     381.40 0.603       9.15    0.100     79.00        0.141 0.95 1.00
            1      4      17.74 0.067      60.98    0.100     79.00        0.376 0.95 1.00
            1      5     308.07 0.596       9.15    0.100     79.00        0.127 0.95 1.00
            1      6     627.43 0.345       9.15    0.100     79.00        0.195 0.95 1.00
            1      7     257.86 0.600       9.15    0.100     73.00        0.118 0.95 1.00
            1      8      13.94 0.064      60.98    0.100     73.00        0.380 0.95 1.00
            1      9     493.74 0.344       9.15    0.100     73.00        0.172 0.95 1.00
            1     10      69.36 0.301       9.15    0.100     79.00        0.093 0.95 1.00
            1     11       8.12 0.058      60.98    0.100     79.00        0.389 0.95 1.00
            1     12       8.12 0.554       9.15    0.100     79.00        0.066 0.95 1.00
            1     13      25.50 0.066      60.98    0.100     73.00        0.379 0.95 1.00
            1     14     398.61 0.609       9.15    0.100     73.00        0.143 0.95 1.00
            1     15     709.24 0.343       9.15    0.100     73.00        0.209 0.95 1.00
            1     16      18.53 0.619       9.15    0.150     84.00        0.083 0.95 1.00
            1     17      23.91 0.350       9.15    0.150     84.00        0.099 0.95 1.00
            1     18       0.71 0.065      60.98    0.150     84.00        0.477 0.95 1.00
            1     19     110.31 0.342       9.15    0.150     79.00        0.119 0.95 1.00
            1     20      44.48 0.598       9.15    0.150     79.00        0.091 0.95 1.00
            1     21       2.38 0.065      60.98    0.150     79.00        0.477 0.95 1.00
            1     22       0.18 0.081      60.98    0.150     79.00        0.446 0.95 1.00
            1     23       2.82 0.592       9.15    0.150     79.00        0.080 0.95 1.00
            1     24       8.38 0.308       9.15    0.150     79.00        0.099 0.95 1.00
            2     25      64.33 0.355       9.15    0.140     81.00        0.098 0.95 1.00
            2     26      75.54 0.648       9.15    0.140     81.00        0.085 0.95 1.00
            2     27       0.53 0.054      60.98    0.140     81.00        0.483 0.95 1.00
            2     28      24.00 0.652       9.15    0.140     81.00        0.077 0.95 1.00
            2     29      30.71 0.340       9.15    0.140     81.00        0.094 0.95 1.00
            2     30       0.79 0.062      60.98    0.140     81.00        0.464 0.95 1.00
            2     31       1.32 0.550       9.15    0.140     81.00        0.077 0.95 1.00
            2     32       3.09 0.412       9.15    0.140     81.00        0.085 0.95 1.00
            2     33     192.11 0.290       9.15    0.140     81.00        0.119 0.95 1.00
            2     34      47.65 0.692       9.15    0.140     81.00        0.080 0.95 1.00
            2     35      11.74 0.070      60.98    0.140     81.00        0.449 0.95 1.00
            2     36      39.53 0.683       9.15    0.140     81.00        0.079 0.95 1.00
            2     37      10.68 0.408       9.15    0.140     81.00        0.086 0.95 1.00
            2     38     400.99 0.623       9.15    0.100     73.00        0.110 0.95 1.00
            2     39    1053.75 0.312       9.15    0.100     73.00        0.188 0.95 1.00
            2     40      71.92 0.065      60.98    0.100     73.00        0.384 0.95 1.00
            2     41     294.74 0.338       9.15    0.100     79.00        0.110 0.95 1.00
            2     42     102.90 0.593       9.15    0.100     79.00        0.076 0.95 1.00
            2     43      11.74 0.068      60.98    0.100     79.00        0.371 0.95 1.00
            2     44     616.66 0.341       9.15    0.100     79.00        0.144 0.95 1.00
            2     45      17.47 0.067      60.98    0.100     79.00        0.373 0.95 1.00
            2     46     279.03 0.591       9.15    0.100     79.00        0.097 0.95 1.00
            2     47     806.22 0.360       9.15    0.100     73.00        0.162 0.95 1.00
            2     48      14.03 0.068      60.98    0.100     73.00        0.371 0.95 1.00
            2     49     865.08 0.644       9.15    0.100     73.00        0.156 0.95 1.00
            2     50     733.41 0.289       9.15    0.100     79.00        0.159 0.95 1.00
            2     51     124.43 0.059      60.98    0.100     79.00        0.402 0.95 1.00
            2     52     123.72 0.581       9.15    0.100     79.00        0.079 0.95 1.00
            2     53     301.71 0.320       9.15    0.100     73.00        0.112 0.95 1.00
            2     54      15.88 0.069      60.98    0.100     73.00        0.370 0.95 1.00
            2     55     164.93 0.604       9.15    0.100     73.00        0.084 0.95 1.00
            2     56      24.09 0.065      60.98    0.100     73.00        0.378 0.95 1.00
            2     57    1150.03 0.360       9.15    0.100     73.00        0.194 0.95 1.00
            2     58     775.51 0.598       9.15    0.100     73.00        0.148 0.95 1.00
            2     59       0.18 0.087      60.98    0.150     79.00        0.437 0.95 1.00
            2     60      17.65 0.360       9.15    0.150     79.00        0.094 0.95 1.00
            2     61      23.65 0.617       9.15    0.150     79.00        0.082 0.95 1.00
            2     62       0.09 0.077      60.98    0.150     79.00        0.453 0.95 1.00
            2     63      22.50 0.371       9.15    0.150     79.00        0.094 0.95 1.00
            2     64      31.77 0.672       9.15    0.150     79.00        0.081 0.95 1.00
            2     65       1.94 0.601       9.15    0.150     84.00        0.079 0.95 1.00
            2     66       2.91 0.375       9.15    0.150     84.00        0.091 0.95 1.00
            3     67       2.74 0.069      60.98    0.140     84.00        0.451 0.95 1.00
            3     68       7.15 0.560       9.15    0.140     84.00        0.081 0.95 1.00
            3     69      78.80 0.298       9.15    0.140     84.00        0.124 0.95 1.00
            3     70       0.53 0.065      60.98    0.140     84.00        0.457 0.95 1.00
            3     71       7.32 0.271       9.15    0.140     84.00        0.099 0.95 1.00
            3     72       0.26 0.510       9.15    0.140     84.00        0.079 0.95 1.00
            3     73       4.85 0.066      60.98    0.100     73.00        0.375 0.95 1.00
            3     74       0.62 0.518       9.15    0.100     73.00        0.065 0.95 1.00
            3     75      30.62 0.257       9.15    0.100     73.00        0.093 0.95 1.00
            3     76     735.18 0.312       9.15    0.100     79.00        0.295 0.95 1.00
            3     77     220.44 0.596       9.15    0.100     79.00        0.138 0.95 1.00
            3     78      52.33 0.066      60.98    0.100     79.00        0.394 0.95 1.00
            3     79      73.77 0.583       9.15    0.100     73.00        0.091 0.95 1.00
            3     80     180.20 0.339       9.15    0.100     73.00        0.137 0.95 1.00
            3     81       5.47 0.066      60.98    0.100     73.00        0.375 0.95 1.00
            3     82       3.62 0.531       9.15    0.100     79.00        0.066 0.95 1.00
            3     83      10.94 0.064      60.98    0.100     79.00        0.381 0.95 1.00
            3     84     103.69 0.252       9.15    0.100     79.00        0.119 0.95 1.00
            3     85      31.15 0.067      60.98    0.100     73.00        0.384 0.95 1.00
            3     86     382.02 0.606       9.15    0.100     73.00        0.185 0.95 1.00
            3     87     784.86 0.334       9.15    0.100     73.00        0.306 0.95 1.00
            3     88       3.27 0.070      60.98    0.150     84.00        0.468 0.95 1.00
            3     89      63.01 0.319       9.15    0.150     84.00        0.120 0.95 1.00
            3     90      17.03 0.602       9.15    0.150     84.00        0.086 0.95 1.00
            4     91       6.53 0.051      60.98    0.140     81.00        0.495 0.95 1.00
            4     92      12.88 0.550       9.15    0.140     81.00        0.084 0.95 1.00
            4     93      75.10 0.311       9.15    0.140     81.00        0.122 0.95 1.00
            4     94       0.18 0.543       9.15    0.140     84.00        0.078 0.95 1.00
            4     95       0.53 0.077      60.98    0.140     84.00        0.435 0.95 1.00
            4     96       4.77 0.266       9.15    0.140     84.00        0.099 0.95 1.00
            4     97      34.24 0.298       9.15    0.140     81.00        0.108 0.95 1.00
            4     98       2.74 0.069      60.98    0.140     81.00        0.451 0.95 1.00
            4     99       0.79 0.508       9.15    0.140     81.00        0.080 0.95 1.00
            4    100       3.53 0.527       9.15    0.140     84.00        0.080 0.95 1.00
            4    101       4.15 0.061      60.98    0.140     84.00        0.468 0.95 1.00
            4    102      77.48 0.284       9.15    0.140     84.00        0.125 0.95 1.00
            4    103       0.53 0.571       9.15    0.140     84.00        0.077 0.95 1.00
            4    104       1.06 0.062      60.98    0.140     84.00        0.464 0.95 1.00
            4    105      17.21 0.269       9.15    0.140     84.00        0.104 0.95 1.00
            4    106     383.61 0.285       9.15    0.100     73.00        0.203 0.95 1.00
            4    107      36.00 0.555       9.15    0.100     73.00        0.079 0.95 1.00
            4    108     111.63 0.051      60.98    0.100     73.00        0.444 0.95 1.00
            4    109     772.15 0.311       9.15    0.100     79.00        0.307 0.95 1.00
            4    110     163.61 0.583       9.15    0.100     79.00        0.122 0.95 1.00
            4    111      38.21 0.062      60.98    0.100     79.00        0.396 0.95 1.00
            4    112     490.38 0.266       9.15    0.100     79.00        0.234 0.95 1.00
            4    113      28.77 0.570       9.15    0.100     79.00        0.075 0.95 1.00
            4    114     133.34 0.056      60.98    0.100     79.00        0.440 0.95 1.00
            4    115       1.32 0.069      60.98    0.150     84.00        0.469 0.95 1.00
            4    116       0.26 0.511       9.15    0.150     84.00        0.082 0.95 1.00
            4    117      14.65 0.278       9.15    0.150     84.00        0.106 0.95 1.00
            4    118      42.89 0.348       9.15    0.100     93.84        0.091 0.95 1.00
            4    119       1.15 0.067      60.98    0.100     93.84        0.371 0.95 1.00
            4    120       3.79 0.549       9.15    0.100     93.84        0.065 0.95 1.00
            4    121       0.35 0.525       9.15    0.100     93.84        0.064 0.95 1.00
            4    122       2.29 0.302       9.15    0.100     93.84        0.077 0.95 1.00
            5    123      59.57 0.224      15.24    0.140     84.00        0.161 0.95 1.00
            5    124       8.74 0.065      60.98    0.140     84.00        0.461 0.95 1.00
            5    125       0.62 0.555       9.15    0.140     84.00        0.077 0.95 1.00
            5    126       0.35 0.498       9.15    0.140     84.00        0.080 0.95 1.00
            5    127      17.03 0.255       9.15    0.140     84.00        0.105 0.95 1.00
            5    128       1.76 0.066      60.98    0.140     84.00        0.456 0.95 1.00
            5    129     370.99 0.622       9.15    0.100     79.00        0.177 0.95 1.00
            5    130    1091.78 0.305       9.15    0.100     79.00        0.373 0.95 1.00
            5    131      83.66 0.065      60.98    0.100     79.00        0.405 0.95 1.00
            5    132       0.35 0.063      60.98    0.100     73.00        0.377 0.95 1.00
            5    133      14.12 0.360       9.15    0.100     73.00        0.078 0.95 1.00
            5    134      13.68 0.605       9.15    0.100     73.00        0.068 0.95 1.00
            5    135     202.17 0.224      15.24    0.100     79.00        0.180 0.95 1.00
            5    136      98.75 0.052      60.98    0.100     79.00        0.436 0.95 1.00
            5    137       4.32 0.542       9.15    0.100     79.00        0.066 0.95 1.00
            5    138      12.80 0.067      60.98    0.100     73.00        0.376 0.95 1.00
            5    139     271.80 0.616       9.15    0.100     73.00        0.149 0.95 1.00
            5    140     452.53 0.346       9.15    0.100     73.00        0.210 0.95 1.00
            5    141      11.65 0.615       9.15    0.150     84.00        0.083 0.95 1.00
            5    142       1.50 0.072      60.98    0.150     84.00        0.463 0.95 1.00
            5    143      27.36 0.312       9.15    0.150     84.00        0.107 0.95 1.00
            5    144       0.09 0.499       9.15    0.150     79.00        0.083 0.95 1.00
            5    145       0.97 0.339       9.15    0.150     79.00        0.094 0.95 1.00
            5    146       0.09 0.046      91.46    0.150     79.00        0.674 0.95 1.00
            6    147      19.86 0.057      60.98    0.140     84.00        0.484 0.95 1.00
            6    148      53.57 0.217      15.24    0.140     84.00        0.159 0.95 1.00
            6    149       8.30 0.181      18.29    0.140     84.00        0.167 0.95 1.00
            6    150      18.00 0.039      91.46    0.140     84.00        0.687 0.95 1.00
            6    151     621.43 0.299       9.15    0.100     79.00        0.249 0.95 1.00
            6    152      66.18 0.058      60.98    0.100     79.00        0.411 0.95 1.00
            6    153      92.22 0.584       9.15    0.100     79.00        0.095 0.95 1.00
            6    154       0.26 0.069      60.98    0.100     73.00        0.367 0.95 1.00
            6    155       2.47 0.655       9.15    0.100     73.00        0.061 0.95 1.00
            6    156       2.29 0.320       9.15    0.100     73.00        0.075 0.95 1.00
            6    157     452.09 0.344       9.15    0.100     73.00        0.204 0.95 1.00
            6    158     240.47 0.619       9.15    0.100     73.00        0.136 0.95 1.00
            6    159      12.44 0.068      60.98    0.100     73.00        0.374 0.95 1.00
            6    160      18.71 0.060      60.98    0.100     79.00        0.391 0.95 1.00
            6    161      49.95 0.205      15.24    0.100     79.00        0.134 0.95 1.00
            6    162    1286.10 0.342       9.15    0.100     73.00        0.400 0.95 1.00
            6    163     825.28 0.621       9.15    0.100     73.00        0.283 0.95 1.00
            6    164      45.01 0.066      60.98    0.100     73.00        0.389 0.95 1.00
            7    165       0.44 0.039      91.46    0.140     84.00        0.682 0.95 1.00
            7    166       0.09 0.542       9.15    0.100     79.00        0.064 0.95 1.00
            7    167      15.18 0.060      60.98    0.100     79.00        0.447 0.95 1.00
            7    168      17.38 0.193      18.29    0.100     79.00        0.204 0.95 1.00
            8    169      14.21 0.551       9.15    0.140     81.00        0.082 0.95 1.00
            8    170      23.12 0.064      60.98    0.140     81.00        0.466 0.95 1.00
            8    171     179.76 0.272       9.15    0.140     81.00        0.137 0.95 1.00
            8    172     116.75 0.234      15.24    0.140     84.00        0.164 0.95 1.00
            8    173       1.32 0.526       9.15    0.140     84.00        0.079 0.95 1.00
            8    174      50.48 0.059      60.98    0.140     84.00        0.484 0.95 1.00
            8    175       0.35 0.067      60.98    0.140     81.00        0.453 0.95 1.00
            8    176      16.94 0.310       9.15    0.140     81.00        0.097 0.95 1.00
            8    177       2.03 0.528       9.15    0.140     81.00        0.079 0.95 1.00
            8    178       2.29 0.538       9.15    0.140     84.00        0.079 0.95 1.00
            8    179       5.82 0.068      60.98    0.140     84.00        0.453 0.95 1.00
            8    180      92.31 0.277       9.15    0.140     84.00        0.118 0.95 1.00
            8    181       2.21 0.045      91.46    0.140     84.00        0.652 0.95 1.00
            8    182     680.73 0.288       9.15    0.100     73.00        0.209 0.95 1.00
            8    183      71.30 0.548       9.15    0.100     73.00        0.081 0.95 1.00
            8    184     121.16 0.055      60.98    0.100     73.00        0.422 0.95 1.00
            8    185      77.13 0.066      60.98    0.100     79.00        0.391 0.95 1.00
            8    186     822.54 0.282       9.15    0.100     79.00        0.233 0.95 1.00
            8    187      70.95 0.555       9.15    0.100     79.00        0.081 0.95 1.00
            8    188       6.79 0.535       9.15    0.100     79.00        0.066 0.95 1.00
            8    189     200.41 0.224      15.24    0.100     79.00        0.158 0.95 1.00
            8    190     138.02 0.055      60.98    0.100     79.00        0.425 0.95 1.00
            9    191      12.53 0.310       9.15    0.140     81.00        0.099 0.95 1.00
            9    192       1.15 0.059      60.98    0.140     81.00        0.471 0.95 1.00
            9    193       0.26 0.556       9.15    0.140     81.00        0.077 0.95 1.00
            9    194      61.51 0.232      15.24    0.140     84.00        0.164 0.95 1.00
            9    195       9.80 0.063      60.98    0.140     84.00        0.467 0.95 1.00
            9    196       3.53 0.068      60.98    0.140     81.00        0.453 0.95 1.00
            9    197      31.42 0.639       9.15    0.140     81.00        0.089 0.95 1.00
            9    198      65.57 0.327       9.15    0.140     81.00        0.120 0.95 1.00
            9    199       0.62 0.058      60.98    0.100     73.00        0.387 0.95 1.00
            9    200       6.97 0.259       9.15    0.100     73.00        0.083 0.95 1.00
            9    201     630.70 0.282       9.15    0.100     79.00        0.292 0.95 1.00
            9    202     106.69 0.600       9.15    0.100     79.00        0.107 0.95 1.00
            9    203      65.48 0.062      60.98    0.100     79.00        0.408 0.95 1.00
            9    204      73.33 0.056      60.98    0.100     79.00        0.423 0.95 1.00
            9    205     204.20 0.236      15.24    0.100     79.00        0.191 0.95 1.00
            9    206      15.62 0.580       9.15    0.100     79.00        0.071 0.95 1.00
            9    207     388.20 0.329       9.15    0.100     73.00        0.214 0.95 1.00
            9    208     170.32 0.611       9.15    0.100     73.00        0.130 0.95 1.00
            9    209      14.47 0.064      60.98    0.100     73.00        0.383 0.95 1.00
            9    210       2.47 0.068      60.98    0.150     84.00        0.472 0.95 1.00
            9    211      27.97 0.304       9.15    0.150     84.00        0.110 0.95 1.00
            9    212       7.50 0.588       9.15    0.150     84.00        0.083 0.95 1.00
            9    213      10.50 0.062      60.98    0.150     79.00        0.489 0.95 1.00
            9    214     113.84 0.623       9.15    0.150     79.00        0.126 0.95 1.00
            9    215     196.88 0.332       9.15    0.150     79.00        0.171 0.95 1.00
           10    216      30.00 0.062      60.98    0.140     81.00        0.484 0.95 1.00
           10    217     299.33 0.283       9.15    0.140     81.00        0.248 0.95 1.00
           10    218      19.24 0.561       9.15    0.140     81.00        0.091 0.95 1.00
           10    219       1.32 0.162      18.29    0.140     84.00        0.170 0.95 1.00
           10    220       0.71 0.071      60.98    0.140     84.00        0.446 0.95 1.00
           10    221      15.53 0.051      60.98    0.140     84.00        0.503 0.95 1.00
           10    222      27.27 0.230      15.24    0.140     84.00        0.155 0.95 1.00
           10    223       0.35 0.523       9.15    0.140     84.00        0.079 0.95 1.00
           10    224      16.50 0.056      60.98    0.140     81.00        0.490 0.95 1.00
           10    225       0.71 0.510       9.15    0.140     81.00        0.080 0.95 1.00
           10    226      71.04 0.244      15.24    0.140     81.00        0.178 0.95 1.00
           10    227       4.68 0.263       9.15    0.140     84.00        0.100 0.95 1.00
           10    228       0.53 0.068      60.98    0.140     84.00        0.452 0.95 1.00
           10    229      49.06 0.056      60.98    0.140     84.00        0.510 0.95 1.00
           10    230      69.63 0.199      18.29    0.140     84.00        0.202 0.95 1.00
           10    231      41.92 0.057      60.98    0.100     73.00        0.416 0.95 1.00
           10    232      29.12 0.558       9.15    0.100     73.00        0.083 0.95 1.00
           10    233     370.81 0.294       9.15    0.100     73.00        0.262 0.95 1.00
           10    234       0.35 0.518       9.15    0.100     79.00        0.065 0.95 1.00
           10    235       7.15 0.070      60.98    0.100     79.00        0.371 0.95 1.00
           10    236      46.51 0.232      15.24    0.100     79.00        0.141 0.95 1.00
           10    237     162.46 0.231      15.24    0.100     79.00        0.201 0.95 1.00
           10    238      77.57 0.052      60.98    0.100     79.00        0.447 0.95 1.00
           10    239       5.12 0.543       9.15    0.100     79.00        0.068 0.95 1.00
           11    240       0.09 0.073      60.98    0.140     81.00        0.442 0.95 1.00
           11    241       7.50 0.315       9.15    0.140     81.00        0.095 0.95 1.00
           11    242       6.09 0.065      60.98    0.140     81.00        0.461 0.95 1.00
           11    243     178.70 0.313       9.15    0.140     81.00        0.159 0.95 1.00
           11    244      16.68 0.563       9.15    0.140     81.00        0.085 0.95 1.00
           11    245       0.35 0.381       9.15    0.140     84.00        0.086 0.95 1.00
           11    246       3.71 0.562       9.15    0.140     81.00        0.079 0.95 1.00
           11    247      14.83 0.340       9.15    0.140     81.00        0.097 0.95 1.00
           11    248       0.35 0.073      60.98    0.140     81.00        0.442 0.95 1.00
           11    249      21.09 0.248      15.24    0.140     81.00        0.144 0.95 1.00
           11    250       0.18 0.528       9.15    0.140     81.00        0.078 0.95 1.00
           11    251       1.41 0.069      60.98    0.140     81.00        0.450 0.95 1.00
           11    252     223.00 0.292       9.15    0.100     73.00        0.158 0.95 1.00
           11    253      14.56 0.063      60.98    0.100     73.00        0.385 0.95 1.00
           11    254      35.48 0.633       9.15    0.100     73.00        0.077 0.95 1.00
           11    255       0.53 0.082      60.98    0.100     79.00        0.349 0.95 1.00
           11    256       0.53 0.520       9.15    0.100     79.00        0.065 0.95 1.00
           11    257       2.29 0.304       9.15    0.100     79.00        0.077 0.95 1.00
           11    258       3.88 0.067      60.98    0.100     73.00        0.372 0.95 1.00
           11    259     213.11 0.342       9.15    0.100     73.00        0.151 0.95 1.00
           11    260     111.01 0.626       9.15    0.100     73.00        0.105 0.95 1.00
           11    261      80.48 0.568       9.15    0.100     73.00        0.096 0.95 1.00
           11    262      29.12 0.066      60.98    0.100     73.00        0.386 0.95 1.00
           11    263     498.15 0.313       9.15    0.100     73.00        0.240 0.95 1.00
           11    264      18.53 0.066      60.98    0.100     73.00        0.381 0.95 1.00
           11    265      10.94 0.543       9.15    0.100     73.00        0.069 0.95 1.00
           11    266     171.29 0.277       9.15    0.100     73.00        0.143 0.95 1.00
           11    267       8.30 0.068      60.98    0.100     73.00        0.373 0.95 1.00
           11    268     130.96 0.564       9.15    0.100     73.00        0.114 0.95 1.00
           11    269     378.58 0.342       9.15    0.100     73.00        0.203 0.95 1.00
           11    270      11.03 0.332       9.15    0.100     93.84        0.079 0.95 1.00
           11    271       0.53 0.070      60.98    0.100     93.84        0.366 0.95 1.00
           11    272       2.12 0.585       9.15    0.100     93.84        0.063 0.95 1.00
           11    273       0.53 0.077      60.98    0.100     93.84        0.355 0.95 1.00
           11    274      30.71 0.326       9.15    0.100     93.84        0.088 0.95 1.00
           11    275       3.62 0.548       9.15    0.100     93.84        0.065 0.95 1.00
           12    276      33.89 0.173      18.29    0.140     81.00        0.184 0.95 1.00
           12    277      41.12 0.052      60.98    0.140     81.00        0.510 0.95 1.00
           12    278      59.57 0.049      91.46    0.140     84.00        0.664 0.95 1.00
           12    279      49.86 0.166      18.29    0.140     84.00        0.193 0.95 1.00
           12    280       0.97 0.526       9.15    0.100     73.00        0.065 0.95 1.00
           12    281      86.92 0.048      91.46    0.100     73.00        0.563 0.95 1.00
           12    282     167.40 0.219      15.24    0.100     73.00        0.186 0.95 1.00
           12    283      24.44 0.070      60.98    0.100     79.00        0.379 0.95 1.00
           12    284     425.17 0.626       9.15    0.100     79.00        0.227 0.95 1.00
           12    285     671.20 0.338       9.15    0.100     79.00        0.320 0.95 1.00
           12    286     198.82 0.355       9.15    0.100     73.00        0.157 0.95 1.00
           12    287     143.31 0.636       9.15    0.100     73.00        0.124 0.95 1.00
           12    288       1.85 0.066      60.98    0.100     73.00        0.373 0.95 1.00
           12    289       2.47 0.063      60.98    0.100     73.00        0.379 0.95 1.00
           12    290      96.63 0.358       9.15    0.100     73.00        0.117 0.95 1.00
           12    291     112.69 0.641       9.15    0.100     73.00        0.112 0.95 1.00
           12    292      61.68 0.055      60.98    0.100     79.00        0.423 0.95 1.00
           12    293      48.27 0.592       9.15    0.100     79.00        0.086 0.95 1.00
           12    294     184.70 0.272       9.15    0.100     79.00        0.158 0.95 1.00
           12    295     244.35 0.612       9.15    0.100     73.00        0.163 0.95 1.00
           12    296     406.46 0.340       9.15    0.100     73.00        0.232 0.95 1.00
           12    297      18.27 0.064      60.98    0.100     73.00        0.386 0.95 1.00
           12    298       0.53 0.077      60.98    0.150     84.00        0.453 0.95 1.00
           12    299      17.12 0.628       9.15    0.150     84.00        0.087 0.95 1.00
           12    300      34.24 0.352       9.15    0.150     84.00        0.110 0.95 1.00
           12    301      53.39 0.628       9.15    0.150     79.00        0.104 0.95 1.00
           12    302      91.51 0.338       9.15    0.150     79.00        0.136 0.95 1.00
           12    303       3.26 0.062      60.98    0.150     79.00        0.486 0.95 1.00
           13    304       6.44 0.559       9.15    0.140     81.00        0.086 0.95 1.00
           13    305      34.15 0.052      60.98    0.140     81.00        0.527 0.95 1.00
           13    306     105.63 0.253       9.15    0.140     81.00        0.202 0.95 1.00
           13    307      58.51 0.064      60.98    0.140     84.00        0.521 0.95 1.00
           13    308      93.36 0.175      18.29    0.140     84.00        0.258 0.95 1.00
           13    309      57.45 0.582       9.15    0.100     73.00        0.123 0.95 1.00
           13    310     212.41 0.280       9.15    0.100     73.00        0.269 0.95 1.00
           13    311      29.74 0.068      60.98    0.100     73.00        0.403 0.95 1.00
           13    312     143.93 0.206      15.24    0.100     79.00        0.252 0.95 1.00
           13    313       0.62 0.558       9.15    0.100     79.00        0.064 0.95 1.00
           13    314      54.54 0.061      60.98    0.100     79.00        0.439 0.95 1.00
           14    315      13.68 0.039      91.46    0.140     81.00        0.687 0.95 1.00
           14    316       0.62 0.140      24.39    0.140     81.00        0.210 0.95 1.00
           14    317      54.54 0.181      18.29    0.140     84.00        0.189 0.95 1.00
           14    318      24.97 0.064      60.98    0.140     84.00        0.472 0.95 1.00
           14    319      62.21 0.171      18.29    0.140     84.00        0.195 0.95 1.00
           14    320     130.78 0.047      91.46    0.140     84.00        0.698 0.95 1.00
           14    321       0.35 0.180      18.29    0.100     73.00        0.134 0.95 1.00
           14    322       0.09 0.076      60.98    0.100     73.00        0.356 0.95 1.00
           14    323     804.63 0.316       9.15    0.100     79.00        0.345 0.95 1.00
           14    324     369.75 0.626       9.15    0.100     79.00        0.197 0.95 1.00
           14    325      73.42 0.064      60.98    0.100     79.00        0.408 0.95 1.00
           14    326     202.00 0.208      15.24    0.100     79.00        0.195 0.95 1.00
           14    327       7.32 0.539       9.15    0.100     79.00        0.068 0.95 1.00
           14    328     226.53 0.047      91.46    0.100     79.00        0.614 0.95 1.00
           14    329       0.18 0.203      15.24    0.100     73.00        0.116 0.95 1.00
           14    330      24.09 0.055      60.98    0.150     84.00        0.513 0.95 1.00
           14    331     180.46 0.306       9.15    0.150     84.00        0.169 0.95 1.00
           14    332      81.54 0.612       9.15    0.150     84.00        0.114 0.95 1.00
           14    333       4.41 0.171      18.29    0.150     84.00        0.176 0.95 1.00
           14    334       8.47 0.044      91.46    0.150     84.00        0.688 0.95 1.00
           15    335      76.69 0.265       9.15    0.140     81.00        0.178 0.95 1.00
           15    336      44.92 0.045      91.46    0.140     81.00        0.702 0.95 1.00
           15    337       9.71 0.558       9.15    0.140     81.00        0.090 0.95 1.00
           15    338      17.30 0.041      91.46    0.140     84.00        0.692 0.95 1.00
           15    339       5.21 0.201      15.24    0.140     84.00        0.150 0.95 1.00
           15    340      23.03 0.628       9.15    0.100     73.00        0.089 0.95 1.00
           15    341      68.21 0.315       9.15    0.100     73.00        0.148 0.95 1.00
           15    342       3.18 0.066      60.98    0.100     73.00        0.377 0.95 1.00
           15    343      12.80 0.032      91.46    0.100     79.00        0.606 0.95 1.00
           15    344       1.24 0.283       9.15    0.100     79.00        0.079 0.95 1.00
           16    345       5.29 0.035      91.46    0.100     79.00        0.724 0.95 1.00
           17    346       0.18 0.548       9.15    0.140     84.00        0.078 0.95 1.00
           17    347       1.32 0.062      60.98    0.140     84.00        0.467 0.95 1.00
           17    348       9.27 0.249      15.24    0.140     84.00        0.150 0.95 1.00
           17    349       9.44 0.606       9.15    0.140     84.00        0.093 0.95 1.00
           17    350      73.60 0.244      15.24    0.140     84.00        0.240 0.95 1.00
           17    351      75.45 0.043      91.46    0.140     84.00        0.768 0.95 1.00
           17    352       1.76 0.048      91.46    0.140     84.00        0.643 0.95 1.00
           17    353       2.74 0.189      18.29    0.140     84.00        0.167 0.95 1.00
           17    354      12.09 0.353       9.15    0.100     73.00        0.094 0.95 1.00
           17    355       0.53 0.053      60.98    0.100     73.00        0.399 0.95 1.00
           17    356       7.15 0.586       9.15    0.100     73.00        0.076 0.95 1.00
           17    357      17.65 0.625       9.15    0.100     79.00        0.091 0.95 1.00
           17    358      90.10 0.282       9.15    0.100     79.00        0.204 0.95 1.00
           17    359      35.12 0.044      91.46    0.100     79.00        0.591 0.95 1.00
           18    360       1.15 0.070      60.98    0.140     81.00        0.448 0.95 1.00
           18    361      13.94 0.254       9.15    0.140     81.00        0.106 0.95 1.00
           18    362       9.62 0.059      60.98    0.140     81.00        0.477 0.95 1.00
           18    363      75.10 0.294       9.15    0.140     81.00        0.132 0.95 1.00
           18    364       6.00 0.540       9.15    0.140     81.00        0.082 0.95 1.00
           18    365      12.80 0.568       9.15    0.140     84.00        0.085 0.95 1.00
           18    366      29.92 0.063      60.98    0.140     84.00        0.479 0.95 1.00
           18    367     156.55 0.278       9.15    0.140     84.00        0.169 0.95 1.00
           18    368       2.12 0.567       9.15    0.140     84.00        0.078 0.95 1.00
           18    369       7.77 0.310       9.15    0.140     84.00        0.097 0.95 1.00
           18    370       0.35 0.069      60.98    0.140     84.00        0.449 0.95 1.00
           18    371     697.41 0.314       9.15    0.100     73.00        0.350 0.95 1.00
           18    372      42.45 0.064      60.98    0.100     73.00        0.399 0.95 1.00
           18    373     101.75 0.579       9.15    0.100     73.00        0.113 0.95 1.00
           18    374     641.37 0.314       9.15    0.100     79.00        0.330 0.95 1.00
           18    375     152.67 0.587       9.15    0.100     79.00        0.135 0.95 1.00
           18    376      48.36 0.062      60.98    0.100     79.00        0.405 0.95 1.00
           18    377      48.36 0.598       9.15    0.100     79.00        0.088 0.95 1.00
           18    378      27.36 0.062      60.98    0.100     79.00        0.395 0.95 1.00
           18    379     169.79 0.303       9.15    0.100     79.00        0.155 0.95 1.00
           19    380       4.85 0.067      60.98    0.140     84.00        0.455 0.95 1.00
           19    381      88.69 0.325       9.15    0.140     84.00        0.118 0.95 1.00
           19    382      30.27 0.593       9.15    0.140     84.00        0.086 0.95 1.00
           19    383      55.77 0.322       9.15    0.140     84.00        0.109 0.95 1.00
           19    384      37.50 0.620       9.15    0.140     84.00        0.088 0.95 1.00
           19    385       2.29 0.071      60.98    0.140     84.00        0.446 0.95 1.00
           19    386    2401.00 0.321       9.15    0.100     79.00        0.575 0.95 1.00
           19    387     132.63 0.065      60.98    0.100     79.00        0.413 0.95 1.00
           19    388    1179.59 0.637       9.15    0.100     79.00        0.329 0.95 1.00
           19    389       0.71 0.071      60.98    0.100     73.00        0.364 0.95 1.00
           19    390      54.36 0.346       9.15    0.100     73.00        0.091 0.95 1.00
           19    391      14.30 0.576       9.15    0.100     73.00        0.068 0.95 1.00
           19    392     129.37 0.284       9.15    0.100     79.00        0.116 0.95 1.00
           19    393      36.89 0.049      91.46    0.100     79.00        0.531 0.95 1.00
           19    394      13.77 0.570       9.15    0.100     79.00        0.068 0.95 1.00
           20    395       0.09 0.061      60.98    0.140     84.00        0.466 0.95 1.00
           20    396       0.71 0.533       9.15    0.140     84.00        0.078 0.95 1.00
           20    397       3.09 0.382       9.15    0.140     84.00        0.087 0.95 1.00
           20    398     449.26 0.620       9.15    0.100     79.00        0.163 0.95 1.00
           20    399     755.21 0.335       9.15    0.100     79.00        0.235 0.95 1.00
           20    400      24.97 0.065      60.98    0.100     79.00        0.382 0.95 1.00
           20    401     469.29 0.349       9.15    0.100     73.00        0.179 0.95 1.00
           20    402      10.06 0.066      60.98    0.100     73.00        0.375 0.95 1.00
           20    403     208.79 0.594       9.15    0.100     73.00        0.114 0.95 1.00
           20    404     276.56 0.632       9.15    0.100     73.00        0.128 0.95 1.00
           20    405     370.99 0.354       9.15    0.100     73.00        0.159 0.95 1.00
           20    406       6.71 0.069      60.98    0.100     73.00        0.369 0.95 1.00
           20    407     550.75 0.613       9.15    0.100     73.00        0.184 0.95 1.00
           20    408    1002.39 0.347       9.15    0.100     73.00        0.280 0.95 1.00
           20    409      18.71 0.067      60.98    0.100     73.00        0.376 0.95 1.00
           20    410       7.41 0.606       9.15    0.100     73.00        0.064 0.95 1.00
           20    411       1.32 0.057      60.98    0.100     73.00        0.389 0.95 1.00
           20    412      24.09 0.304       9.15    0.100     73.00        0.083 0.95 1.00
           20    413     174.55 0.622       9.15    0.100     73.00        0.106 0.95 1.00
           20    414     230.06 0.367       9.15    0.100     73.00        0.128 0.95 1.00
           20    415       1.59 0.064      60.98    0.100     73.00        0.376 0.95 1.00
           21    416       5.56 0.068      60.98    0.140     84.00        0.452 0.95 1.00
           21    417     116.84 0.338       9.15    0.140     84.00        0.111 0.95 1.00
           21    418      62.66 0.609       9.15    0.140     84.00        0.087 0.95 1.00
           21    419       0.26 0.511       9.15    0.140     84.00        0.079 0.95 1.00
           21    420      12.18 0.247      15.24    0.140     84.00        0.136 0.95 1.00
           21    421       2.65 0.071      60.98    0.140     84.00        0.446 0.95 1.00
           21    422       4.94 0.071      60.98    0.100     79.00        0.365 0.95 1.00
           21    423     104.31 0.333       9.15    0.100     79.00        0.093 0.95 1.00
           21    424      57.98 0.622       9.15    0.100     79.00        0.073 0.95 1.00
           21    425      45.18 0.606       9.15    0.100     73.00        0.071 0.95 1.00
           21    426      59.04 0.365       9.15    0.100     73.00        0.083 0.95 1.00
           21    427       0.26 0.067      60.98    0.100     73.00        0.370 0.95 1.00
           21    428     961.62 0.321       9.15    0.100     79.00        0.212 0.95 1.00
           21    429      65.83 0.065      60.98    0.100     79.00        0.387 0.95 1.00
           21    430     359.96 0.605       9.15    0.100     79.00        0.120 0.95 1.00
           21    431     510.33 0.338       9.15    0.100     73.00        0.152 0.95 1.00
           21    432     213.82 0.601       9.15    0.100     73.00        0.098 0.95 1.00
           21    433       8.38 0.069      60.98    0.100     73.00        0.369 0.95 1.00
           21    434      35.65 0.061      60.98    0.100     79.00        0.388 0.95 1.00
           21    435      72.80 0.566       9.15    0.100     79.00        0.077 0.95 1.00
           21    436     479.27 0.310       9.15    0.100     79.00        0.150 0.95 1.00
           21    437       2.03 0.069      60.98    0.100     73.00        0.368 0.95 1.00
           21    438      19.77 0.309       9.15    0.100     73.00        0.080 0.95 1.00
           21    439       8.47 0.602       9.15    0.100     73.00        0.064 0.95 1.00
           21    440      44.92 0.647       9.15    0.100     73.00        0.069 0.95 1.00
           21    441       2.74 0.069      60.98    0.100     73.00        0.368 0.95 1.00
           21    442      49.51 0.319       9.15    0.100     73.00        0.085 0.95 1.00
           21    443     235.44 0.586       9.15    0.100     73.00        0.102 0.95 1.00
           21    444       6.35 0.067      60.98    0.100     73.00        0.372 0.95 1.00
           21    445     379.72 0.360       9.15    0.100     73.00        0.133 0.95 1.00
           21    446      24.18 0.619       9.15    0.150     79.00        0.083 0.95 1.00
           21    447      28.86 0.394       9.15    0.150     79.00        0.095 0.95 1.00
           21    448      15.53 0.596       9.15    0.150     79.00        0.082 0.95 1.00
           21    449       0.09 0.072      60.98    0.150     79.00        0.462 0.95 1.00
           21    450      32.47 0.369       9.15    0.150     79.00        0.098 0.95 1.00
           22    451       1.85 0.352       9.15    0.140     81.00        0.089 0.95 1.00
           22    452       0.09 0.043      91.46    0.140     81.00        0.660 0.95 1.00
           22    453       4.59 0.668       9.15    0.140     81.00        0.075 0.95 1.00
           22    454      51.36 0.062      60.98    0.100     79.00        0.398 0.95 1.00
           22    455     908.32 0.338       9.15    0.100     79.00        0.306 0.95 1.00
           22    456     886.70 0.653       9.15    0.100     79.00        0.288 0.95 1.00
           22    457     230.15 0.651       9.15    0.100     73.00        0.130 0.95 1.00
           22    458       6.71 0.065      60.98    0.100     73.00        0.377 0.95 1.00
           22    459     239.94 0.346       9.15    0.100     73.00        0.145 0.95 1.00
           22    460       1.41 0.066      60.98    0.100     79.00        0.373 0.95 1.00
           22    461       0.97 0.174      18.29    0.100     79.00        0.136 0.95 1.00
           22    462      83.13 0.277       9.15    0.100     73.00        0.106 0.95 1.00
           22    463      35.12 0.044      91.46    0.100     73.00        0.549 0.95 1.00
           22    464      26.92 0.696       9.15    0.100     73.00        0.069 0.95 1.00
           23    465      62.48 0.206      15.24    0.140     84.00        0.159 0.95 1.00
           23    466       0.71 0.543       9.15    0.140     84.00        0.078 0.95 1.00
           23    467      51.80 0.046      91.46    0.140     84.00        0.662 0.95 1.00
           23    468      84.54 0.043      91.46    0.140     84.00        0.683 0.95 1.00
           23    469       1.32 0.602       9.15    0.140     84.00        0.076 0.95 1.00
           23    470      65.83 0.192      18.29    0.140     84.00        0.179 0.95 1.00
           23    471      67.60 0.203      15.24    0.140     84.00        0.161 0.95 1.00
           23    472       0.18 0.508       9.15    0.140     84.00        0.079 0.95 1.00
           23    473      21.62 0.064      60.98    0.140     84.00        0.466 0.95 1.00
           23    474      19.33 0.216      15.24    0.140     84.00        0.145 0.95 1.00
           23    475       3.79 0.060      60.98    0.140     84.00        0.470 0.95 1.00
           23    476     699.88 0.628       9.15    0.100     79.00        0.210 0.95 1.00
           23    477    1786.72 0.308       9.15    0.100     79.00        0.414 0.95 1.00
           23    478     215.50 0.055      60.98    0.100     79.00        0.446 0.95 1.00
           23    479     499.30 0.352       9.15    0.100     73.00        0.183 0.95 1.00
           23    480       9.97 0.069      60.98    0.100     73.00        0.370 0.95 1.00
           23    481     544.48 0.683       9.15    0.100     73.00        0.179 0.95 1.00
           23    482     455.09 0.671       9.15    0.100     73.00        0.162 0.95 1.00
           23    483       7.59 0.066      60.98    0.100     73.00        0.375 0.95 1.00
           23    484     407.87 0.357       9.15    0.100     73.00        0.165 0.95 1.00
           23    485     943.79 0.264       9.15    0.100     79.00        0.273 0.95 1.00
           23    486     360.84 0.050      60.98    0.100     79.00        0.488 0.95 1.00
           23    487     132.55 0.592       9.15    0.100     79.00        0.096 0.95 1.00
           23    488      36.45 0.372       9.15    0.100     73.00        0.082 0.95 1.00
           23    489       0.88 0.049      91.46    0.100     73.00        0.519 0.95 1.00
           23    490     161.05 0.727       9.15    0.100     73.00        0.099 0.95 1.00
           23    491     445.38 0.337       9.15    0.150     84.00        0.194 0.95 1.00
           23    492     288.83 0.624       9.15    0.150     84.00        0.146 0.95 1.00
           23    493      22.68 0.064      60.98    0.150     84.00        0.486 0.95 1.00
           23    494      57.98 0.655       9.15    0.150     79.00        0.093 0.95 1.00
           23    495       1.50 0.072      60.98    0.150     79.00        0.463 0.95 1.00
           23    496      67.77 0.338       9.15    0.150     79.00        0.112 0.95 1.00
           23    497       1.24 0.079      60.98    0.150     79.00        0.450 0.95 1.00
           23    498      52.15 0.671       9.15    0.150     79.00        0.091 0.95 1.00
           23    499      65.04 0.349       9.15    0.150     79.00        0.111 0.95 1.00
           23    500       1.94 0.530       9.15    0.150     84.00        0.082 0.95 1.00
           23    501     130.60 0.201      15.24    0.150     84.00        0.182 0.95 1.00
           23    502      66.71 0.061      60.98    0.150     84.00        0.505 0.95 1.00
           23    503       1.59 0.328       9.15    0.150     79.00        0.095 0.95 1.00
           23    504       6.18 0.867       9.15    0.150     79.00        0.073 0.95 1.00
           23    505       4.15 0.066      60.98    0.010     92.00        0.095 0.95 1.00
           23    506      88.95 0.297       9.15    0.010     92.00        0.044 0.95 1.00
           23    507       7.15 0.605       9.15    0.010     92.00        0.018 0.95 1.00
           24    508       7.68 0.564       9.15    0.140     84.00        0.081 0.95 1.00
           24    509     377.61 0.046      91.46    0.140     84.00        0.770 0.95 1.00
           24    510     301.80 0.231      15.24    0.140     84.00        0.238 0.95 1.00
           24    511       3.09 0.536       9.15    0.140     84.00        0.080 0.95 1.00
           24    512     347.25 0.038      91.46    0.140     84.00        0.800 0.95 1.00
           24    513     113.22 0.236      15.24    0.140     84.00        0.178 0.95 1.00
           24    514       1.06 0.536       9.15    0.140     84.00        0.078 0.95 1.00
           24    515     114.63 0.044      91.46    0.140     84.00        0.699 0.95 1.00
           24    516      69.80 0.213      15.24    0.140     84.00        0.168 0.95 1.00
           24    517       1.59 0.122      24.39    0.140     84.00        0.219 0.95 1.00
           24    518       9.09 0.056      60.98    0.140     84.00        0.483 0.95 1.00
           24    519     430.91 0.244      15.24    0.100     79.00        0.248 0.95 1.00
           24    520     187.96 0.048      91.46    0.100     79.00        0.589 0.95 1.00
           24    521      16.59 0.564       9.15    0.100     79.00        0.071 0.95 1.00
           24    522       5.21 0.542       9.15    0.100     79.00        0.066 0.95 1.00
           24    523     106.16 0.217      15.24    0.100     79.00        0.154 0.95 1.00
           24    524     246.47 0.042      91.46    0.100     79.00        0.628 0.95 1.00
           24    525       4.24 0.544       9.15    0.150     84.00        0.083 0.95 1.00
           24    526      20.38 0.068      60.98    0.150     84.00        0.480 0.95 1.00
           24    527      99.10 0.246      15.24    0.150     84.00        0.178 0.95 1.00
           24    528       6.09 0.064      60.98    0.150     84.00        0.482 0.95 1.00
           24    529      14.03 0.167      18.29    0.150     84.00        0.181 0.95 1.00
           25    530      31.50 0.210      15.24    0.140     84.00        0.149 0.95 1.00
           25    531      36.89 0.044      91.46    0.140     84.00        0.666 0.95 1.00
           25    532       0.18 0.547       9.15    0.140     84.00        0.077 0.95 1.00
           25    533      54.62 0.718       9.15    0.140     84.00        0.087 0.95 1.00
           25    534       1.24 0.066      60.98    0.140     84.00        0.456 0.95 1.00
           25    535      42.53 0.343       9.15    0.140     84.00        0.101 0.95 1.00
           25    536       0.35 0.635       9.15    0.140     81.00        0.074 0.95 1.00
           25    537       0.71 0.372       9.15    0.140     81.00        0.087 0.95 1.00
           25    538     252.56 0.609       9.15    0.100     79.00        0.120 0.95 1.00
           25    539      23.03 0.067      60.98    0.100     79.00        0.377 0.95 1.00
           25    540     455.26 0.333       9.15    0.100     79.00        0.172 0.95 1.00
           25    541       3.62 0.071      60.98    0.100     73.00        0.365 0.95 1.00
           25    542     214.09 0.641       9.15    0.100     73.00        0.111 0.95 1.00
           25    543     225.82 0.356       9.15    0.100     73.00        0.125 0.95 1.00
           25    544     102.54 0.624       9.15    0.100     73.00        0.087 0.95 1.00
           25    545       0.97 0.062      60.98    0.100     73.00        0.379 0.95 1.00
           25    546     107.93 0.380       9.15    0.100     73.00        0.098 0.95 1.00
           25    547      47.83 0.056      60.98    0.100     79.00        0.404 0.95 1.00
           25    548      55.51 0.601       9.15    0.100     79.00        0.077 0.95 1.00
           25    549     210.82 0.277       9.15    0.100     79.00        0.128 0.95 1.00
           25    550       0.62 0.577       9.15    0.100     73.00        0.062 0.95 1.00
           25    551       3.71 0.060      60.98    0.100     73.00        0.384 0.95 1.00
           25    552      17.56 0.244      15.24    0.100     73.00        0.115 0.95 1.00
           25    553     132.63 0.602       9.15    0.100     73.00        0.095 0.95 1.00
           25    554       6.62 0.070      60.98    0.100     73.00        0.368 0.95 1.00
           25    555     164.05 0.349       9.15    0.100     73.00        0.113 0.95 1.00
           25    556       0.71 0.066      60.98    0.150     79.00        0.475 0.95 1.00
           25    557      10.41 0.312       9.15    0.150     79.00        0.099 0.95 1.00
           25    558       3.35 0.617       9.15    0.150     79.00        0.079 0.95 1.00
           25    559      29.30 0.593       9.15    0.150     79.00        0.088 0.95 1.00
           25    560       0.79 0.073      60.98    0.150     79.00        0.460 0.95 1.00
           25    561      55.42 0.354       9.15    0.150     79.00        0.107 0.95 1.00
           26    562       5.74 0.062      60.98    0.140     81.00        0.470 0.95 1.00
           26    563      49.51 0.660       9.15    0.140     81.00        0.114 0.95 1.00
           26    564      40.06 0.287       9.15    0.140     81.00        0.128 0.95 1.00
           26    565       1.32 0.540       9.15    0.100     79.00        0.065 0.95 1.00
           26    566      41.48 0.279       9.15    0.100     79.00        0.113 0.95 1.00
           26    567       3.62 0.069      60.98    0.100     79.00        0.371 0.95 1.00
           26    568       0.18 0.026      91.46    0.100     79.00        0.627 0.95 1.00
           26    569       1.24 0.662       9.15    0.100     79.00        0.061 0.95 1.00
           26    570       1.94 0.283       9.15    0.100     79.00        0.079 0.95 1.00
           26    571       3.44 0.541       9.15    0.100     79.00        0.067 0.95 1.00
           26    572      25.33 0.059      60.98    0.100     79.00        0.407 0.95 1.00
           26    573     124.25 0.237      15.24    0.100     79.00        0.202 0.95 1.00
           26    574      68.48 0.039      91.46    0.100     73.00        0.610 0.95 1.00
           26    575      55.33 0.252       9.15    0.100     73.00        0.125 0.95 1.00
           26    576      27.27 0.684       9.15    0.100     73.00        0.083 0.95 1.00
           27    577      31.33 0.051      60.98    0.140     84.00        0.535 0.95 1.00
           27    578      57.18 0.184      18.29    0.140     84.00        0.236 0.95 1.00
           27    579     106.16 0.038      91.46    0.140     84.00        0.810 0.95 1.00
           27    580      28.50 0.190      18.29    0.140     84.00        0.201 0.95 1.00
           27    581     134.49 0.057      60.98    0.100     79.00        0.543 0.95 1.00
           27    582     169.70 0.187      18.29    0.100     79.00        0.322 0.95 1.00
           27    583       0.35 0.535       9.15    0.100     79.00        0.064 0.95 1.00
           27    584     317.69 0.038      91.46    0.100     79.00        0.888 0.95 1.00
           27    585      83.30 0.173      18.29    0.100     79.00        0.237 0.95 1.00
           27    586      15.44 0.063      60.98    0.150     84.00        0.504 0.95 1.00
           27    587      60.89 0.208      15.24    0.150     84.00        0.224 0.95 1.00
           27    588      18.71 0.206      15.24    0.150     84.00        0.174 0.95 1.00
           27    589       4.32 0.065      60.98    0.150     84.00        0.484 0.95 1.00
           27    590      16.41 0.222      15.24    0.010     92.00        0.053 0.95 1.00
           27    591       2.03 0.071      60.98    0.010     92.00        0.095 0.95 1.00
           28    592       0.18 0.532       9.15    0.140     84.00        0.078 0.95 1.00
           28    593     118.78 0.192      18.29    0.140     84.00        0.211 0.95 1.00
           28    594      47.56 0.065      60.98    0.140     84.00        0.480 0.95 1.00
           28    595      25.50 0.166      18.29    0.140     84.00        0.181 0.95 1.00
           28    596      42.62 0.040      91.46    0.140     84.00        0.695 0.95 1.00
           28    597       0.88 0.543       9.15    0.140     84.00        0.078 0.95 1.00
           28    598      23.91 0.058      60.98    0.140     84.00        0.485 0.95 1.00
           28    599      61.51 0.212      15.24    0.140     84.00        0.168 0.95 1.00
           28    600    1231.48 0.292       9.15    0.100     79.00        0.469 0.95 1.00
           28    601     397.64 0.616       9.15    0.100     79.00        0.207 0.95 1.00
           28    602     264.21 0.053      60.98    0.100     79.00        0.499 0.95 1.00
           28    603      31.15 0.596       9.15    0.100     73.00        0.077 0.95 1.00
           28    604       0.44 0.049      91.46    0.100     73.00        0.519 0.95 1.00
           28    605      33.62 0.372       9.15    0.100     73.00        0.088 0.95 1.00
           28    606       0.71 0.528       9.15    0.100     79.00        0.064 0.95 1.00
           28    607     256.00 0.054      60.98    0.100     79.00        0.494 0.95 1.00
           28    608     301.80 0.184      18.29    0.100     79.00        0.247 0.95 1.00
           28    609      51.36 0.359       9.15    0.150     84.00        0.116 0.95 1.00
           28    610      35.03 0.622       9.15    0.150     84.00        0.095 0.95 1.00
           28    611       1.32 0.072      60.98    0.150     84.00        0.463 0.95 1.00
           28    612      50.48 0.371       9.15    0.150     79.00        0.114 0.95 1.00
           28    613      29.03 0.584       9.15    0.150     79.00        0.094 0.95 1.00
           28    614       0.26 0.061      60.98    0.150     79.00        0.486 0.95 1.00
           28    615       1.50 0.562       9.15    0.150     79.00        0.081 0.95 1.00
           28    616       3.79 0.367       9.15    0.150     79.00        0.093 0.95 1.00
           29    617       3.00 0.546       9.15    0.140     84.00        0.082 0.95 1.00
           29    618      46.77 0.052      60.98    0.140     84.00        0.545 0.95 1.00
           29    619      46.24 0.216      15.24    0.140     84.00        0.195 0.95 1.00
           29    620     185.05 0.043      91.46    0.140     84.00        0.848 0.95 1.00
           29    621       2.38 0.564       9.15    0.140     84.00        0.081 0.95 1.00
           29    622     191.85 0.237      15.24    0.140     84.00        0.329 0.95 1.00
           29    623     177.11 0.229      15.24    0.100     79.00        0.293 0.95 1.00
           29    624      10.85 0.588       9.15    0.100     79.00        0.078 0.95 1.00
           29    625     112.25 0.055      60.98    0.100     79.00        0.514 0.95 1.00
           29    626      81.01 0.190      18.29    0.100     79.00        0.223 0.95 1.00
           29    627     164.05 0.043      91.46    0.100     79.00        0.709 0.95 1.00
           29    628       4.94 0.580       9.15    0.100     79.00        0.070 0.95 1.00
           29    629       0.79 0.547       9.15    0.010     92.00        0.017 0.95 1.00
           29    630       1.06 0.060      60.98    0.010     92.00        0.098 0.95 1.00
           29    631       6.09 0.254       9.15    0.010     92.00        0.029 0.95 1.00
           29    632       6.44 0.070      60.98    0.010     92.00        0.102 0.95 1.00
           29    633      23.47 0.213      15.24    0.010     92.00        0.060 0.95 1.00
           29    634       0.26 0.560       9.15    0.010     92.00        0.016 0.95 1.00
           29    635       0.53 0.026      91.46    0.100     94.96        0.628 0.95 1.00
           29    636       4.94 0.038      91.46    0.100     94.96        0.568 0.95 1.00
           29    637       0.09 0.101      60.98    0.100     94.96        0.327 0.95 1.00
           30    638      24.00 0.656       9.15    0.140     84.00        0.081 0.95 1.00
           30    639      34.68 0.060      60.98    0.140     84.00        0.479 0.95 1.00
           30    640     152.40 0.248      15.24    0.140     84.00        0.172 0.95 1.00
           30    641      52.51 0.388       9.15    0.140     81.00        0.101 0.95 1.00
           30    642       0.53 0.059      60.98    0.140     81.00        0.471 0.95 1.00
           30    643      63.63 0.605       9.15    0.140     81.00        0.093 0.95 1.00
           30    644      34.15 0.059      60.98    0.140     84.00        0.481 0.95 1.00
           30    645      75.27 0.186      18.29    0.140     84.00        0.183 0.95 1.00
           30    646       1.15 0.725       9.15    0.140     84.00        0.072 0.95 1.00
           30    647       5.82 0.592       9.15    0.140     81.00        0.078 0.95 1.00
           30    648       4.85 0.403       9.15    0.140     81.00        0.087 0.95 1.00
           30    649      31.06 0.063      60.98    0.140     84.00        0.471 0.95 1.00
           30    650      69.36 0.188      18.29    0.140     84.00        0.181 0.95 1.00
           30    651     211.00 0.062      60.98    0.100     79.00        0.431 0.95 1.00
           30    652    1581.02 0.266       9.15    0.100     79.00        0.383 0.95 1.00
           30    653     210.56 0.610       9.15    0.100     79.00        0.113 0.95 1.00
           30    654     260.50 0.356       9.15    0.100     73.00        0.135 0.95 1.00
           30    655     159.11 0.626       9.15    0.100     73.00        0.101 0.95 1.00
           30    656       4.77 0.065      60.98    0.100     73.00        0.375 0.95 1.00
           30    657      23.56 0.664       9.15    0.100     73.00        0.067 0.95 1.00
           30    658      65.13 0.317       9.15    0.100     73.00        0.093 0.95 1.00
           30    659       1.06 0.078      60.98    0.100     73.00        0.354 0.95 1.00
           30    660      11.47 0.544       9.15    0.100     79.00        0.067 0.95 1.00
           30    661     347.69 0.054      60.98    0.100     79.00        0.476 0.95 1.00
           30    662     759.98 0.216      15.24    0.100     79.00        0.274 0.95 1.00
           30    663      62.21 0.278       9.15    0.100     73.00        0.095 0.95 1.00
           30    664      78.45 0.037      91.46    0.100     73.00        0.586 0.95 1.00
           30    665      10.15 0.578       9.15    0.100     73.00        0.066 0.95 1.00
           30    666       1.06 0.331       9.15    0.100     73.00        0.074 0.95 1.00
           30    667       0.79 0.770       9.15    0.100     73.00        0.057 0.95 1.00
           30    668       0.18 0.068      60.98    0.100     73.00        0.369 0.95 1.00
           30    669       0.88 0.692       9.15    0.100     86.22        0.059 0.95 1.00
           30    670       0.09 0.378       9.15    0.100     86.22        0.071 0.95 1.00
           30    671       1.94 0.562       9.15    0.100     81.88        0.064 0.95 1.00
           30    672       4.59 0.358       9.15    0.100     81.88        0.074 0.95 1.00
           31    673      34.06 0.048      91.46    0.140     84.00        0.651 0.95 1.00
           31    674       4.24 0.553       9.15    0.140     84.00        0.079 0.95 1.00
           31    675      95.48 0.261       9.15    0.140     84.00        0.128 0.95 1.00
           31    676      14.56 0.063      60.98    0.140     81.00        0.467 0.95 1.00
           31    677     143.93 0.288       9.15    0.140     81.00        0.139 0.95 1.00
           31    678      95.31 0.669       9.15    0.140     81.00        0.104 0.95 1.00
           31    679      13.94 0.070      60.98    0.100     79.00        0.371 0.95 1.00
           31    680     220.35 0.621       9.15    0.100     79.00        0.127 0.95 1.00
           31    681     395.52 0.330       9.15    0.100     79.00        0.183 0.95 1.00
           31    682      60.45 0.393       9.15    0.100     73.00        0.091 0.95 1.00
           31    683      71.48 0.608       9.15    0.100     73.00        0.086 0.95 1.00
           31    684       0.44 0.061      60.98    0.100     73.00        0.381 0.95 1.00
           31    685     236.68 0.692       9.15    0.100     79.00        0.129 0.95 1.00
           31    686       5.12 0.064      60.98    0.100     79.00        0.378 0.95 1.00
           31    687     139.08 0.343       9.15    0.100     79.00        0.117 0.95 1.00
           31    688     469.91 0.266       9.15    0.100     79.00        0.206 0.95 1.00
           31    689      84.89 0.059      60.98    0.100     79.00        0.413 0.95 1.00
           31    690      38.48 0.555       9.15    0.100     79.00        0.077 0.95 1.00
           31    691     358.10 0.657       9.15    0.100     73.00        0.160 0.95 1.00
           31    692     131.31 0.046      91.46    0.100     73.00        0.570 0.95 1.00
           31    693     548.45 0.300       9.15    0.100     73.00        0.222 0.95 1.00
           31    694      29.03 0.621       9.15    0.100     73.00        0.072 0.95 1.00
           31    695      23.83 0.384       9.15    0.100     73.00        0.080 0.95 1.00
           31    696       0.18 0.087      60.98    0.100     73.00        0.342 0.95 1.00
           32    697     168.11 0.039      91.46    0.140     84.00        0.726 0.95 1.00
           32    698      29.74 0.152      24.39    0.140     84.00        0.215 0.95 1.00
           32    699      20.65 0.038      91.46    0.140     84.00        0.692 0.95 1.00
           32    700       0.18 0.104      60.98    0.140     84.00        0.397 0.95 1.00
           32    701      31.95 0.147      24.39    0.140     84.00        0.217 0.95 1.00
           32    702     141.37 0.045      91.46    0.140     84.00        0.691 0.95 1.00
           32    703      19.94 0.143      24.39    0.140     84.00        0.215 0.95 1.00
           32    704      45.53 0.053      60.98    0.140     84.00        0.501 0.95 1.00
           32    705       1.68 0.044      91.46    0.140     84.00        0.656 0.95 1.00
           32    706       9.09 0.148      24.39    0.140     84.00        0.210 0.95 1.00
           32    707      20.56 0.057      60.98    0.140     84.00        0.483 0.95 1.00
           32    708      34.15 0.171      18.29    0.100     79.00        0.147 0.95 1.00
           32    709      22.15 0.059      60.98    0.100     79.00        0.392 0.95 1.00
           32    710     129.19 0.049      91.46    0.100     79.00        0.556 0.95 1.00
           32    711     229.62 0.617       9.15    0.100     79.00        0.122 0.95 1.00
           32    712     715.15 0.318       9.15    0.100     79.00        0.241 0.95 1.00
           32    713     112.34 0.342       9.15    0.100     73.00        0.106 0.95 1.00
           32    714      28.33 0.558       9.15    0.100     73.00        0.073 0.95 1.00
           32    715       1.68 0.069      60.98    0.100     73.00        0.368 0.95 1.00
           32    716     558.25 0.045      91.46    0.100     79.00        0.666 0.95 1.00
           32    717     485.53 0.252       9.15    0.100     79.00        0.198 0.95 1.00
           32    718      52.33 0.571       9.15    0.100     79.00        0.079 0.95 1.00
           32    719     225.38 0.326       9.15    0.150     84.00        0.155 0.95 1.00
           32    720      70.95 0.597       9.15    0.150     84.00        0.100 0.95 1.00
           32    721      17.91 0.052      60.98    0.150     84.00        0.516 0.95 1.00
           32    722       4.59 0.550       9.15    0.150     84.00        0.082 0.95 1.00
           32    723      22.77 0.323       9.15    0.150     84.00        0.102 0.95 1.00
           32    724       0.53 0.078      60.98    0.150     84.00        0.451 0.95 1.00
           32    725      12.18 0.161      18.29    0.100     81.09        0.143 0.95 1.00
           32    726      42.71 0.044      91.46    0.100     81.09        0.550 0.95 1.00
           32    727      13.33 0.158      24.39    0.100     81.09        0.170 0.95 1.00
           32    728      32.74 0.047      91.46    0.100     81.09        0.536 0.95 1.00
           33    729       0.09 0.112      60.98    0.140     84.00        0.388 0.95 1.00
           33    730      56.39 0.034      91.46    0.140     84.00        0.731 0.95 1.00
           33    731     132.55 0.034      91.46    0.140     84.00        0.756 0.95 1.00
           33    732       0.18 0.107      60.98    0.140     84.00        0.394 0.95 1.00
           33    733     149.84 0.034      91.46    0.140     84.00        0.762 0.95 1.00
           33    734       1.76 0.536       9.15    0.140     84.00        0.079 0.95 1.00
           33    735       9.62 0.248      15.24    0.140     84.00        0.138 0.95 1.00
           33    736      51.89 0.615       9.15    0.140     84.00        0.096 0.95 1.00
           33    737     146.31 0.333       9.15    0.140     84.00        0.142 0.95 1.00
           33    738       3.62 0.069      60.98    0.140     84.00        0.451 0.95 1.00
           33    739       0.97 0.293       9.15    0.140     81.00        0.094 0.95 1.00
           33    740      88.86 0.059      60.98    0.100     79.00        0.419 0.95 1.00
           33    741    1359.61 0.326       9.15    0.100     79.00        0.444 0.95 1.00
           33    742     519.42 0.611       9.15    0.100     79.00        0.221 0.95 1.00
           33    743       0.88 0.045      91.46    0.100     73.00        0.533 0.95 1.00
           33    744     156.37 0.373       9.15    0.100     73.00        0.127 0.95 1.00
           33    745     109.69 0.593       9.15    0.100     73.00        0.103 0.95 1.00
           33    746     127.60 0.370       9.15    0.100     73.00        0.118 0.95 1.00
           33    747       0.44 0.060      60.98    0.100     73.00        0.383 0.95 1.00
           33    748      81.98 0.615       9.15    0.100     73.00        0.093 0.95 1.00
           33    749      34.86 0.225      15.24    0.100     79.00        0.127 0.95 1.00
           33    750      37.68 0.042      91.46    0.100     79.00        0.559 0.95 1.00
           33    751       0.18 0.499       9.15    0.100     79.00        0.065 0.95 1.00
           33    752      13.06 0.331       9.15    0.100     73.00        0.080 0.95 1.00
           33    753       0.35 0.056      60.98    0.100     73.00        0.391 0.95 1.00
           33    754       4.15 0.541       9.15    0.100     73.00        0.066 0.95 1.00
           33    755       0.62 0.073      60.98    0.100     73.00        0.361 0.95 1.00
           33    756      42.71 0.358       9.15    0.100     73.00        0.090 0.95 1.00
           33    757      26.74 0.619       9.15    0.100     73.00        0.073 0.95 1.00
           33    758      36.00 0.619       9.15    0.150     84.00        0.093 0.95 1.00
           33    759     102.98 0.342       9.15    0.150     84.00        0.131 0.95 1.00
           33    760       1.94 0.066      60.98    0.150     84.00        0.475 0.95 1.00
           33    761     228.03 0.641       9.15    0.150     79.00        0.154 0.95 1.00
           33    762       1.15 0.066      60.98    0.150     79.00        0.475 0.95 1.00
           33    763     237.56 0.368       9.15    0.150     79.00        0.171 0.95 1.00
           33    764      30.97 0.629       9.15    0.150     79.00        0.091 0.95 1.00
           33    765       0.18 0.047      91.46    0.150     79.00        0.670 0.95 1.00
           33    766      55.60 0.351       9.15    0.150     79.00        0.115 0.95 1.00
           34    767       0.44 0.109      60.98    0.140     84.00        0.392 0.95 1.00
           34    768      11.30 0.049      91.46    0.140     84.00        0.638 0.95 1.00
           34    769     333.66 0.201      15.24    0.140     84.00        0.215 0.95 1.00
           34    770      19.50 0.589       9.15    0.140     84.00        0.082 0.95 1.00
           34    771     445.38 0.048      91.46    0.140     84.00        0.733 0.95 1.00
           34    772     172.17 0.046      91.46    0.140     84.00        0.688 0.95 1.00
           34    773      57.45 0.152      24.39    0.140     84.00        0.220 0.95 1.00
[...]
          132   2917       3.97        31.000         0.048   1000.000   0.020      750.000  0.050    0.000     0.000
          132   2918      60.62        31.000         0.048   1000.000   0.020      750.000  0.050    0.000     0.000
          132   2919      10.41        31.000         0.048   1000.000   0.020      750.000  0.050    0.000     0.000
          132   2920       4.85        31.000         0.048   1000.000   0.020      750.000  0.050    0.000     0.000
          132   2921      36.53        31.000         0.048   1000.000   0.020      750.000  0.050    0.000     0.000
          132   2922      59.30        31.000         0.048   1000.000   0.020      750.000  0.050    0.000     0.000
          132   2923       2.91        31.000         0.048   1000.000   0.020      750.000  0.050    0.000     0.000
          132   2924       8.65        31.000         0.048   1000.000   0.020      750.000  0.050    0.000     0.000
          132   2925       0.09        31.000         0.048   1000.000   0.020      750.000  0.050    0.000     0.000
          132   2926       6.09        31.000         0.048   1000.000   0.020      750.000  0.050    0.000     0.000
          132   2927       0.44        31.000         0.048   1000.000   0.020      750.000  0.050    0.000     0.000
          132   2928      77.13        31.000         0.048   1000.000   0.020      750.000  0.050    0.000     0.000
          132   2929       8.38        31.000         0.048   1000.000   0.020      750.000  0.050    0.000     0.000
          132   2930       7.32        31.000         0.048   1000.000   0.020      750.000  0.050    0.000     0.000
          133   2931       0.18        31.000         0.048   1000.000   0.020      750.000  0.050    0.000     0.000
          133   2932       8.56        31.000         0.048   1000.000   0.020      750.000  0.050    0.000     0.000
          133   2933       2.47        31.000         0.048   1000.000   0.020      750.000  0.050    0.000     0.000
          133   2934       0.09        31.000         0.048   1000.000   0.020      750.000  0.050    0.000     0.000
          133   2935       0.26        31.000         0.048   1000.000   0.020      750.000  0.050    0.000     0.000
          133   2936    2118.88        31.000         0.048   1000.000   0.020      750.000  0.050    0.000     0.000
          133   2937     154.17        31.000         0.048   1000.000   0.020      750.000  0.050    0.000     0.000
          133   2938     678.70        31.000         0.048   1000.000   0.020      750.000  0.050    0.000     0.000
          133   2939     457.91        31.000         0.048   1000.000   0.020      750.000  0.050    0.000     0.000
          133   2940     101.48        31.000         0.048   1000.000   0.020      750.000  0.050    0.000     0.000
          133   2941      30.97        31.000         0.048   1000.000   0.020      750.000  0.050    0.000     0.000
          133   2942       2.91        31.000         0.048   1000.000   0.020      750.000  0.050    0.000     0.000
          133   2943      81.63        31.000         0.048   1000.000   0.020      750.000  0.050    0.000     0.000
          133   2944      73.42        31.000         0.048   1000.000   0.020      750.000  0.050    0.000     0.000
          133   2945      15.97        31.000         0.048   1000.000   0.020      750.000  0.050    0.000     0.000
          133   2946      70.07        31.000         0.048   1000.000   0.020      750.000  0.050    0.000     0.000
          133   2947       2.21        31.000         0.048   1000.000   0.020      750.000  0.050    0.000     0.000
          133   2948      74.57        31.000         0.048   1000.000   0.020      750.000  0.050    0.000     0.000
          133   2949       4.85        31.000         0.048   1000.000   0.020      750.000  0.050    0.000     0.000
          133   2950       8.12        31.000         0.048   1000.000   0.020      750.000  0.050    0.000     0.000
          133   2951       0.53        31.000         0.048   1000.000   0.020      750.000  0.050    0.000     0.000
          133   2952      16.77        31.000         0.048   1000.000   0.020      750.000  0.050    0.000     0.000
          133   2953       1.50        31.000         0.048   1000.000   0.020      750.000  0.050    0.000     0.000
          133   2954      73.07        31.000         0.048   1000.000   0.020      750.000  0.050    0.000     0.000
          133   2955       9.62        31.000         0.048   1000.000   0.020      750.000  0.050    0.000     0.000
          133   2956      11.12        31.000         0.048   1000.000   0.020      750.000  0.050    0.000     0.000

         Tributary/Main Channel Characteristics
              |--------------Tributary--------------------|---------------------Main---------------------------|
          Sub  Length(km) Slope Width(m) Cond(mm/hr)     N Length(km) Slope Width(m) Depth(m) Cond(mm/hr)     N
            1       13.94 0.045    12.81      0.0000 0.014       6.12 0.010    12.81     0.60      0.0000 0.014
            2       17.43 0.062    18.70      0.0000 0.014      10.06 0.012    18.70     0.77      0.0000 0.014
            3       13.20 0.044     9.52      0.0000 0.014       4.04 0.007     9.52     0.49      0.0000 0.014
            4       11.11 0.038     8.82      0.0000 0.014       5.81 0.004    26.77     0.98      0.0000 0.014
            5       13.75 0.058     9.41      0.0000 0.014       4.08 0.004     9.41     0.49      0.0000 0.014
            6       15.97 0.041    11.46      0.0000 0.014       8.19 0.008    11.46     0.56      0.0000 0.014
            7        1.28 0.037     0.66      0.0000 0.014       1.10 0.005    15.92     0.69      0.0000 0.014
            8        7.82 0.039     9.31      0.0000 0.014       5.25 0.002    32.06     1.11      0.0000 0.014
            9       13.25 0.061     8.29      0.0000 0.014       2.48 0.004     8.29     0.45      0.0000 0.014
           10        7.89 0.025     6.14      0.0000 0.014       6.71 0.002    38.81     1.26      0.0000 0.014
           11       14.61 0.091     8.31      0.0000 0.014       1.47 0.016     8.31     0.45      0.0000 0.014
           12       20.04 0.052    10.47      0.0000 0.014      10.59 0.007    10.47     0.52      0.0000 0.014
           13        6.65 0.016     4.48      0.0000 0.014       4.11 0.002    41.17     1.31      0.0000 0.014
           14       13.02 0.053     8.40      0.0000 0.014       2.02 0.001     8.40     0.45      0.0000 0.014
           15        3.89 0.067     2.30      0.0000 0.014       1.61 0.001    43.84     1.36      0.0000 0.014
           16        0.56 0.005     0.22      0.0000 0.014       0.16 0.019    45.50     1.40      0.0000 0.014
           17        4.35 0.021     2.67      0.0000 0.014       4.10 0.005    24.56     0.93      0.0000 0.014
           18       12.14 0.031     8.34      0.0000 0.014      11.37 0.008    19.26     0.79      0.0000 0.014
           19       15.52 0.041    12.11      0.0000 0.014       5.49 0.013    12.11     0.58      0.0000 0.014
           20       18.57 0.071    12.80      0.0000 0.014       8.40 0.013    12.80     0.60      0.0000 0.014
           21       12.94 0.096    12.04      0.0000 0.014       3.16 0.012    12.04     0.58      0.0000 0.014
           22       11.65 0.059     8.93      0.0000 0.014       2.94 0.014     8.93     0.47      0.0000 0.014
           23       28.28 0.052    17.81      0.0000 0.014      21.94 0.006    17.81     0.75      0.0000 0.014
           24        9.26 0.023     8.86      0.0000 0.014       6.01 0.001    56.23     1.61      0.0000 0.014
           25       10.60 0.117     8.45      0.0000 0.014       1.04 0.011     8.45     0.46      0.0000 0.014
           26        4.27 0.046     3.18      0.0000 0.014       2.12 0.004    16.65     0.71      0.0000 0.014
           27        8.79 0.010     5.28      0.0000 0.014       2.93 0.000    61.67     1.71      0.0000 0.014
           28       17.53 0.055     9.95      0.0000 0.014       7.11 0.003     9.95     0.51      0.0000 0.014
           29        7.61 0.008     5.34      0.0000 0.014       3.11 0.001    67.21     1.81      0.0000 0.014
           30       14.26 0.042    12.40      0.0000 0.014       5.69 0.003    12.40     0.59      0.0000 0.014
           31       12.66 0.041    10.35      0.0000 0.014       7.41 0.005    23.49     0.90      0.0000 0.014
           32       13.61 0.061    10.51      0.0000 0.014       2.23 0.004    10.51     0.53      0.0000 0.014
           33       19.93 0.059    11.53      0.0000 0.014      11.97 0.008    11.53     0.56      0.0000 0.014
           34       25.07 0.053    17.15      0.0000 0.014      18.14 0.007    17.15     0.73      0.0000 0.014
           35        8.07 0.009     5.27      0.0000 0.014       3.56 0.002    69.43     1.85      0.0000 0.014
           36       22.48 0.029    18.71      0.0000 0.014      16.35 0.006    18.71     0.77      0.0000 0.014
           37        9.68 0.060     6.22      0.0000 0.014       4.35 0.003    29.40     1.04      0.0000 0.014
           38       21.79 0.032    16.02      0.0000 0.014      10.88 0.006    16.02     0.70      0.0000 0.014
           39        5.23 0.004     3.35      0.0000 0.014       3.74 0.000    73.67     1.93      0.0000 0.014
           40       11.05 0.010     7.24      0.0000 0.014       6.68 0.001    19.10     0.78      0.0000 0.014
           41       10.32 0.005     7.75      0.0000 0.014       4.05 0.000    78.92     2.02      0.0000 0.014
           42       22.43 0.008    18.30      0.0000 0.014      14.57 0.003    18.30     0.76      0.0000 0.014
           43       24.18 0.051    16.35      0.0000 0.014      15.34 0.008    16.35     0.71      0.0000 0.014
           44       13.78 0.034    12.48      0.0000 0.014       6.10 0.000    85.38     2.13      0.0000 0.014
           45       13.74 0.052    10.31      0.0000 0.014       3.58 0.003    10.31     0.52      0.0000 0.014
           46        6.81 0.030     5.46      0.0000 0.014       1.87 0.003    89.11     2.19      0.0000 0.014
           47       19.00 0.029    17.32      0.0000 0.014      16.37 0.001    41.52     1.32      0.0000 0.014
           48       13.31 0.049    10.55      0.0000 0.014       5.47 0.002    10.55     0.53      0.0000 0.014
           49       19.72 0.043    14.60      0.0000 0.014      10.85 0.005    14.60     0.65      0.0000 0.014
           50        8.11 0.024     6.01      0.0000 0.014       4.34 0.000    91.16     2.22      0.0000 0.014
           51       19.45 0.028    16.51      0.0000 0.014       9.97 0.004    16.51     0.71      0.0000 0.014
           52       11.09 0.050     9.05      0.0000 0.014       6.62 0.004    45.88     1.41      0.0000 0.014
           53       11.02 0.032     9.63      0.0000 0.014       4.72 0.004    52.60     1.54      0.0000 0.014
           54       18.36 0.004    12.98      0.0000 0.014      10.53 0.001   193.82     3.67      0.0000 0.014
           55       11.45 0.004    10.06      0.0000 0.014       1.80 0.001    10.06     0.51      0.0000 0.014
           56        5.03 0.017     4.96      0.0000 0.014       4.64 0.003    94.13     2.27      0.0000 0.014
           57        2.66 0.123     1.65      0.0000 0.014       0.50 0.008   125.47     2.75      0.0000 0.014
           58        2.44 0.088     1.51      0.0000 0.014       1.22 0.007    70.18     1.87      0.0000 0.014
           59       12.20 0.047    10.64      0.0000 0.014       4.66 0.005    10.64     0.53      0.0000 0.014
           60       17.23 0.013    11.58      0.0000 0.014       6.61 0.004    11.58     0.56      0.0000 0.014
           61       19.52 0.008    14.23      0.0000 0.014      17.54 0.003    58.18     1.65      0.0000 0.014
           62       26.03 0.019    17.41      0.0000 0.014      17.33 0.001    68.38     1.84      0.0000 0.014
           63        8.37 0.011     4.97      0.0000 0.014       4.54 0.001    61.08     1.70      0.0000 0.014
           64       10.42 0.006     7.20      0.0000 0.014       3.68 0.002   191.68     3.65      0.0000 0.014
           65       14.35 0.005    11.63      0.0000 0.014       6.46 0.001    11.63     0.56      0.0000 0.014
           66        8.50 0.006     4.82      0.0000 0.014       0.78 0.004   187.21     3.59      0.0000 0.014
           67        2.48 0.003     1.21      0.0000 0.014       1.56 0.001   185.86     3.57      0.0000 0.014
           68        7.44 0.006     7.13      0.0000 0.014       3.95 0.002   188.27     3.60      0.0000 0.014
           69       11.66 0.007     7.95      0.0000 0.014       0.74 0.007     7.95     0.44      0.0000 0.014
           70       18.46 0.037    12.54      0.0000 0.014       6.27 0.003    12.54     0.59      0.0000 0.014
           71        7.09 0.035     5.78      0.0000 0.014       6.12 0.000   125.91     2.76      0.0000 0.014
           72       14.29 0.009    10.28      0.0000 0.014       5.27 0.004    10.28     0.52      0.0000 0.014
           73        5.00 0.047     3.90      0.0000 0.014       1.13 0.001   127.75     2.78      0.0000 0.014
           74        3.58 0.001     1.49      0.0000 0.014       3.04 0.000   181.30     3.51      0.0000 0.014
           75       13.84 0.044     9.95      0.0000 0.014       5.14 0.002     9.95     0.51      0.0000 0.014
           76        2.14 0.009     1.55      0.0000 0.014       0.67 0.006   128.71     2.80      0.0000 0.014
           77       14.71 0.018     8.95      0.0000 0.014       4.28 0.004     8.95     0.47      0.0000 0.014
           78       15.53 0.049    13.80      0.0000 0.014       6.18 0.004    13.80     0.63      0.0000 0.014
           79       12.00 0.004    10.56      0.0000 0.014       4.04 0.002    10.56     0.53      0.0000 0.014
           80       16.36 0.043     9.69      0.0000 0.014       6.60 0.003     9.69     0.50      0.0000 0.014
           81        6.45 0.040     3.92      0.0000 0.014       2.27 0.001   130.02     2.82      0.0000 0.014
           82        1.43 0.132     0.94      0.0000 0.014       0.13 0.016   131.06     2.83      0.0000 0.014
           83       13.81 0.003    13.04      0.0000 0.014       4.86 0.002    13.04     0.61      0.0000 0.014
           84       19.95 0.002    17.80      0.0000 0.014      13.80 0.000    27.09     0.99      0.0000 0.014
           85       16.87 0.033    14.80      0.0000 0.014       8.32 0.002    14.80     0.66      0.0000 0.014
           86       10.63 0.013     9.90      0.0000 0.014       7.12 0.001   135.10     2.89      0.0000 0.014
           87       11.44 0.032     9.02      0.0000 0.014       5.85 0.001    18.54     0.77      0.0000 0.014
           88        8.29 0.026     7.89      0.0000 0.014       0.81 0.004     7.89     0.44      0.0000 0.014
           89       11.01 0.008     8.42      0.0000 0.014       9.16 0.001   181.26     3.51      0.0000 0.014
           90       20.60 0.026    14.00      0.0000 0.014      10.40 0.002    14.00     0.64      0.0000 0.014
           91       12.30 0.056     8.84      0.0000 0.014       3.24 0.006     8.84     0.47      0.0000 0.014
           92       23.06 0.012    14.45      0.0000 0.014      12.69 0.001    14.45     0.65      0.0000 0.014
           93        2.06 0.009     1.01      0.0000 0.014       0.99 0.001    18.44     0.77      0.0000 0.014
           94       13.97 0.022    10.00      0.0000 0.014       3.88 0.003    10.00     0.51      0.0000 0.014
           95        7.40 0.008     4.99      0.0000 0.014       4.94 0.002    26.06     0.96      0.0000 0.014
           96        5.02 0.019     3.15      0.0000 0.014       3.05 0.001   140.43     2.96      0.0000 0.014
           97        8.72 0.008     7.07      0.0000 0.014       5.22 0.001   137.71     2.92      0.0000 0.014
           98       16.61 0.016    11.60      0.0000 0.014       5.34 0.002    11.60     0.56      0.0000 0.014
           99       31.06 0.007    21.08      0.0000 0.014      20.06 0.002    21.08     0.84      0.0000 0.014
          100       10.49 0.005     8.40      0.0000 0.014       2.60 0.004     8.40     0.45      0.0000 0.014
          101        7.01 0.008     5.74      0.0000 0.014       3.74 0.001   175.02     3.43      0.0000 0.014
          102       10.12 0.004     7.79      0.0000 0.014       0.41 0.007     7.79     0.43      0.0000 0.014
          103       13.43 0.012    12.10      0.0000 0.014       8.99 0.000   178.23     3.47      0.0000 0.014
          104       15.80 0.006     9.87      0.0000 0.014       4.98 0.001   170.23     3.37      0.0000 0.014
          105       10.93 0.006     7.86      0.0000 0.014       0.16 0.018     7.86     0.43      0.0000 0.014
          106       13.07 0.009     9.03      0.0000 0.014       4.77 0.001   176.43     3.45      0.0000 0.014
          107       12.50 0.006     9.87      0.0000 0.014      10.80 0.000   142.26     2.99      0.0000 0.014
          108        2.96 0.019     1.45      0.0000 0.014       1.58 0.003    15.63     0.69      0.0000 0.014
          109       14.81 0.048    11.58      0.0000 0.014       6.24 0.003    11.58     0.56      0.0000 0.014
          110       19.71 0.015    17.19      0.0000 0.014      12.41 0.004    17.19     0.73      0.0000 0.014
          111       13.04 0.006     9.93      0.0000 0.014       8.97 0.001   168.73     3.35      0.0000 0.014
          112        3.09 0.003     0.99      0.0000 0.014       0.80 0.001   154.06     3.15      0.0000 0.014
          113       20.86 0.032    15.99      0.0000 0.014      10.27 0.002    15.99     0.70      0.0000 0.014
          114       18.41 0.017    11.59      0.0000 0.014       8.55 0.000   145.69     3.04      0.0000 0.014
          115       15.73 0.036    10.49      0.0000 0.014       6.69 0.004    10.49     0.53      0.0000 0.014
          116       11.08 0.054     9.89      0.0000 0.014       3.34 0.005     9.89     0.50      0.0000 0.014
          117        6.18 0.007     4.53      0.0000 0.014       3.29 0.001    50.02     1.49      0.0000 0.014
          118        7.64 0.008     5.34      0.0000 0.014       5.28 0.000   147.33     3.06      0.0000 0.014
          119       19.48 0.008    18.21      0.0000 0.014      13.33 0.002    18.21     0.76      0.0000 0.014
          120        6.66 0.009     4.61      0.0000 0.014       2.51 0.002   149.78     3.09      0.0000 0.014
          121       16.61 0.030    16.03      0.0000 0.014       6.97 0.003    16.03     0.70      0.0000 0.014
          122       12.67 0.005    12.07      0.0000 0.014       8.95 0.000   151.91     3.12      0.0000 0.014
          123       14.25 0.025     8.74      0.0000 0.014       2.87 0.003     8.74     0.47      0.0000 0.014
          124        8.54 0.006     6.86      0.0000 0.014       7.14 0.001    44.88     1.39      0.0000 0.014
          125       11.39 0.007     9.23      0.0000 0.014       3.62 0.002     9.23     0.48      0.0000 0.014
          126       20.20 0.008    15.83      0.0000 0.014      10.04 0.002    15.83     0.69      0.0000 0.014
          127       11.69 0.008     9.35      0.0000 0.014       9.68 0.001    41.70     1.32      0.0000 0.014
          128       28.12 0.019    18.99      0.0000 0.014      18.48 0.008    18.99     0.78      0.0000 0.014
          129       19.89 0.020    14.66      0.0000 0.014      14.13 0.003    36.34     1.20      0.0000 0.014
          130        4.97 0.033     1.47      0.0000 0.014       4.16 0.002    27.45     1.00      0.0000 0.014
          131       14.62 0.014    11.82      0.0000 0.014       3.28 0.004    11.82     0.57      0.0000 0.014
          132       19.21 0.030    17.02      0.0000 0.014      12.54 0.011    17.02     0.73      0.0000 0.014
          133       13.85 0.038    11.80      0.0000 0.014       6.98 0.008    11.80     0.57      0.0000 0.014
