1
    SWAT Dec 11 2014    VER 2012/Rev 635                                                                 0/ 0/   0      0: 0: 0

    General Input/Output section (file.cio):                                        
    2020/9/9 0:00:00 ARCGIS-SWAT interface AV                                       
                                                                                    
         Number of years in run:   17
         Area of watershed:     4246.146 km2
1
    SWAT Dec 11 2014    VER 2012/Rev 635                                            

    General Input/Output section (file.cio):                                        
    2020/9/9 0:00:00 ARCGIS-SWAT interface AV                                       
                                                                                    
Annual Summary for Watershed in year    1 of simulation

UNIT                                    PERCO    TILE                           WATER     SED     NO3     NO3     NO3     NO3        N       P       P
TIME     PREC    SURQ    LATQ     GWQ    LATE       Q     SW       ET     PET   YIELD   YIELD    SURQ    LATQ    PERC    CROP  ORGANIC SOLUBLE ORGANIC TILENO3
         (mm)    (mm)    (mm)    (mm)    (mm)    (mm)    (mm)    (mm)    (mm)    (mm)    (mm)   ------------------(kg nutrient/ha)-------------------- (kg/ha)
    1  126.10   18.70    9.23    9.62   60.56    0.00  147.14   24.15   30.87   37.70   12.25    0.01    0.53   18.67    0.00    14.27    0.01    1.75    0.00
    2   74.93    6.44    7.04   24.93   35.23    0.00  149.02   25.17   29.83   38.91    4.16    0.00    0.28    6.91    0.00     4.20    0.00    0.51    0.00
    3  186.09   35.89   15.55   43.70   92.36    0.00  151.62   35.01   48.20   95.91   29.85    0.00    0.29    9.45    0.00    22.94    0.01    2.81    0.00
    4  192.80   45.39   15.20   60.34   75.19    0.00  147.60   58.89   73.46  122.81   22.28    0.38    0.13    3.88    3.65    13.24    0.01    1.62    0.00
    5  148.99   48.11    8.91   57.51   14.37    0.00  145.46   81.95  136.33  116.45    6.68    0.13    0.05    0.41    9.43     3.30    0.00    0.41    0.00
    6  388.67  163.00   20.33   51.35  100.64    0.00  144.06   97.94  127.91  236.72   12.04    0.01    0.03    1.93    3.27     4.27    0.01    0.53    0.00
    7  114.22    5.97   11.07   57.31    4.49    0.00  107.38  136.70  193.22   77.03    0.08    0.01    0.01    0.01    4.35     0.03    0.00    0.00    0.00
    8  207.67   20.09   11.73   36.07   26.93    0.00  128.39  126.93  153.96   70.16    0.14    0.01    0.01    0.09    0.70     0.09    0.00    0.01    0.00
    9  202.67   51.66   10.54   27.70   48.43    0.00  149.22   66.76  106.59   91.89    0.39    0.02    0.00    0.28    0.32     0.25    0.01    0.06    0.00
   10  158.42   41.58   14.47   36.73   65.75    0.00  146.14   39.18   57.57   94.85    0.41    0.01    0.01    0.63    0.01     0.22    0.01    0.05    0.00
   11  105.54   17.11    9.76   45.19   49.62    0.00  151.75   21.78   36.24   74.08    0.17    0.01    0.01    0.58    0.00     0.10    0.00    0.02    0.00
   12   45.65    1.33    9.25   49.28   26.53    0.00  146.39   18.27   24.75   62.29    0.02    0.00    0.01    0.35    0.00     0.02    0.00    0.00    0.00

 2000 1951.76  455.27  143.08  499.73  600.10    0.00  146.39  732.73 1018.95 1118.81   88.47    0.59    1.38   43.18   21.75    62.93    0.06    7.78    0.00
1
    SWAT Dec 11 2014    VER 2012/Rev 635                                            

    General Input/Output section (file.cio):                                        
    2020/9/9 0:00:00 ARCGIS-SWAT interface AV                                       
                                                                                    
Annual Summary for Watershed in year    2 of simulation

UNIT                                    PERCO    TILE                           WATER     SED     NO3     NO3     NO3     NO3        N       P       P
TIME     PREC    SURQ    LATQ     GWQ    LATE       Q     SW       ET     PET   YIELD   YIELD    SURQ    LATQ    PERC    CROP  ORGANIC SOLUBLE ORGANIC TILENO3
         (mm)    (mm)    (mm)    (mm)    (mm)    (mm)    (mm)    (mm)    (mm)    (mm)    (mm)   ------------------(kg nutrient/ha)-------------------- (kg/ha)
    1  136.02   23.83   11.44   45.72   78.53    0.00  147.17   16.35   22.12   83.31    0.52    0.01    0.03    1.09    0.00     0.49    0.00    0.07    0.00
    2   77.20    5.61    8.30   46.57   37.39    0.00  150.35   22.98   29.55   62.68    0.20    0.00    0.02    0.51    0.00     0.17    0.00    0.03    0.00
    3  114.67   15.69   11.49   49.16   53.62    0.00  144.63   39.36   55.25   78.81    0.91    0.01    0.03    0.75    0.00     0.67    0.00    0.10    0.00
    4  285.32  102.46   16.93   57.32  107.68    0.00  148.84   45.43   63.81  179.19    8.43    1.08    0.07    4.38    3.45     5.02    0.01    0.69    0.00
    5  115.87   18.54   14.20   71.37   30.92    0.00  137.06   70.60  118.03  107.21    1.48    0.11    0.08    1.99   11.18     0.68    0.00    0.09    0.00
    6  268.46   84.78   15.39   58.13   74.25    0.00  136.04   89.64  113.39  161.22    5.44    0.01    0.03    1.84    2.81     1.81    0.01    0.25    0.00
    7  192.81   54.76   11.94   53.20   19.76    0.00  113.70  131.77  181.86  122.85    0.64    0.04    0.02    0.07    7.64     0.30    0.00    0.04    0.00
    8  143.64   18.93    8.79   29.88   12.70    0.00  118.87   99.61  139.33   60.26    0.16    0.01    0.01    0.05    0.96     0.09    0.00    0.01    0.00
    9   10.44    0.08    2.12    9.17    0.00    0.00   74.70   56.45  157.20   13.51    0.00    0.00    0.00    0.00    0.27     0.00    0.00    0.00    0.00
   10   60.95    1.76    1.75    2.78    0.00    0.00  100.88   31.13   89.76    8.00    0.02    0.02    0.00    0.00    0.00     0.01    0.00    0.00    0.00
   11   67.81   11.42    4.92    2.12    4.30    0.00  121.23   27.23   67.04   19.77    0.16    0.00    0.01    0.23    0.00     0.10    0.00    0.02    0.00
   12   98.39   11.01    7.42    8.53   39.84    0.00  140.67   18.19   27.83   28.07    0.20    0.01    0.02    1.21    0.00     0.12    0.00    0.02    0.00

 2001 1571.56  348.84  114.69  433.94  458.98    0.00  140.67  648.74 1065.17  924.88   18.15    1.30    0.33   12.13   26.31     9.48    0.04    1.33    0.00
1
    SWAT Dec 11 2014    VER 2012/Rev 635                                            

    General Input/Output section (file.cio):                                        
    2020/9/9 0:00:00 ARCGIS-SWAT interface AV                                       
                                                                                    
Annual Summary for Watershed in year    3 of simulation

UNIT                                    PERCO    TILE                           WATER     SED     NO3     NO3     NO3     NO3        N       P       P
TIME     PREC    SURQ    LATQ     GWQ    LATE       Q     SW       ET     PET   YIELD   YIELD    SURQ    LATQ    PERC    CROP  ORGANIC SOLUBLE ORGANIC TILENO3
         (mm)    (mm)    (mm)    (mm)    (mm)    (mm)    (mm)    (mm)    (mm)    (mm)    (mm)   ------------------(kg nutrient/ha)-------------------- (kg/ha)
    1   74.46    9.41    4.99   17.64   21.88    0.00  149.96   28.09   48.82   33.16    0.29    0.01    0.02    0.59    0.00     0.28    0.00    0.04    0.00
    2   71.87    4.37    5.26   18.27   32.15    0.00  150.87   27.53   34.85   28.89    0.18    0.00    0.02    0.97    0.00     0.17    0.00    0.02    0.00
    3  150.97   18.93   14.17   36.46   78.49    0.00  143.91   43.52   55.33   70.91    1.32    0.08    0.04    1.82    0.34     1.08    0.00    0.15    0.00
    4  270.21   67.77   18.07   49.97  109.87    0.00  151.08   58.49   76.67  137.49    3.92    0.37    0.11    7.56    8.38     2.72    0.01    0.38    0.00
    5  211.64   55.98   22.97   82.02   83.38    0.00  138.64   65.16   80.80  163.51    3.99    0.15    0.09    3.15    8.17     2.17    0.01    0.30    0.00
    6  263.95   74.37   13.00   73.60   62.21    0.00  147.52   99.80  127.89  163.73    1.80    0.23    0.03    0.85    3.43     0.79    0.01    0.11    0.00
    7  361.60  140.01   21.74   70.61   92.92    0.00  144.95  105.43  132.94  235.52    1.65    0.08    0.04    0.67    6.70     0.82    0.01    0.11    0.00
    8  183.41   33.35   18.40   78.98   53.77    0.00  131.36   96.53  123.49  134.17    0.26    0.02    0.02    0.25    1.11     0.15    0.00    0.02    0.00
    9  206.42   92.09   11.72   65.14   37.69    0.00  136.64   59.75   94.10  172.27    0.83    0.03    0.01    0.30    0.34     0.60    0.01    0.13    0.00
   10  176.92   59.86    8.90   48.39   46.61    0.00  150.43   43.88   80.38  120.28    0.59    0.06    0.01    0.70    0.02     0.38    0.01    0.08    0.00
   11  135.14   49.48   12.24   44.59   48.08    0.00  150.15   26.51   42.70  109.16    0.61    0.04    0.02    0.81    0.00     0.37    0.01    0.07    0.00
   12   93.33    6.19   11.22   52.20   60.87    0.00  148.95   15.49   19.83   72.52    0.08    0.01    0.02    1.18    0.00     0.06    0.00    0.01    0.00

 2002 2199.92  611.83  162.68  637.89  727.90    0.00  148.95  670.18  917.81 1441.60   15.55    1.09    0.41   18.86   28.50     9.59    0.08    1.43    0.00
1
    SWAT Dec 11 2014    VER 2012/Rev 635                                            

    General Input/Output section (file.cio):                                        
    2020/9/9 0:00:00 ARCGIS-SWAT interface AV                                       
                                                                                    
Annual Summary for Watershed in year    4 of simulation

UNIT                                    PERCO    TILE                           WATER     SED     NO3     NO3     NO3     NO3        N       P       P
TIME     PREC    SURQ    LATQ     GWQ    LATE       Q     SW       ET     PET   YIELD   YIELD    SURQ    LATQ    PERC    CROP  ORGANIC SOLUBLE ORGANIC TILENO3
         (mm)    (mm)    (mm)    (mm)    (mm)    (mm)    (mm)    (mm)    (mm)    (mm)    (mm)   ------------------(kg nutrient/ha)-------------------- (kg/ha)
    1  109.02   34.30    7.08   47.38   39.57    0.00  152.20   22.62   35.44   91.47    0.98    0.02    0.02    0.72    0.00     0.84    0.01    0.12    0.00
    2  125.76   15.88   12.54   43.21   76.93    0.00  152.39   16.85   19.70   74.11    0.55    0.01    0.03    1.38    0.00     0.45    0.00    0.06    0.00
    3  144.02   18.41   17.92   69.43   81.38    0.00  146.72   33.07   44.90  108.82    1.09    0.01    0.03    1.04    0.00     0.81    0.00    0.11    0.00
    4  203.60   46.68   16.14   72.29   85.28    0.00  146.75   51.97   64.12  138.27    3.72    0.83    0.05    2.34    3.22     2.59    0.01    0.35    0.00
    5  234.65   67.36   18.70   80.18   80.75    0.00  141.06   72.52   89.83  169.81    5.12    0.17    0.10    5.53   11.87     2.71    0.01    0.37    0.00
    6  274.45   93.66   12.18   64.04   61.30    0.00  142.11   99.45  135.95  173.28    3.70    0.04    0.03    1.14    5.46     1.41    0.01    0.20    0.00
    7  119.77   28.55   14.63   60.48   23.54    0.00   70.60  133.50  215.85  107.08    0.49    0.10    0.02    0.14    7.26     0.18    0.00    0.03    0.00
    8  106.68    1.13    5.05   28.09    0.13    0.00   74.79   97.83  165.86   37.32    0.01    0.01    0.01    0.01    1.43     0.01    0.00    0.00    0.00
    9  123.92    3.66    7.52    7.01    3.63    0.00  101.11   83.26  129.84   20.57    0.04    0.01    0.01    0.09    0.22     0.03    0.00    0.01    0.00
   10   30.83    1.72    2.73    3.26    0.25    0.00   93.63   36.28  114.97    9.62    0.01    0.01    0.00    0.00    0.00     0.01    0.00    0.00    0.00
   11   40.60    0.72    1.49    0.65    0.02    0.00  110.26   22.12   72.27    4.26    0.00    0.01    0.00    0.00    0.00     0.01    0.00    0.00    0.00
   12   26.94    1.10    1.72    0.36    0.52    0.00  110.01   24.62   58.01    4.26    0.02    0.00    0.01    0.02    0.00     0.02    0.00    0.00    0.00

 2003 1540.25  313.16  117.70  476.39  453.29    0.00  110.01  694.09 1146.75  938.87   15.72    1.22    0.32   12.43   29.45     9.07    0.04    1.25    0.00
1
    SWAT Dec 11 2014    VER 2012/Rev 635                                            

    General Input/Output section (file.cio):                                        
    2020/9/9 0:00:00 ARCGIS-SWAT interface AV                                       
                                                                                    
Annual Summary for Watershed in year    5 of simulation

UNIT                                    PERCO    TILE                           WATER     SED     NO3     NO3     NO3     NO3        N       P       P
TIME     PREC    SURQ    LATQ     GWQ    LATE       Q     SW       ET     PET   YIELD   YIELD    SURQ    LATQ    PERC    CROP  ORGANIC SOLUBLE ORGANIC TILENO3
         (mm)    (mm)    (mm)    (mm)    (mm)    (mm)    (mm)    (mm)    (mm)    (mm)    (mm)   ------------------(kg nutrient/ha)-------------------- (kg/ha)
    1   88.03   12.24    5.10    2.25   16.84    0.00  136.12   25.63   41.04   20.43    0.62    0.01    0.02    0.72    0.00     0.62    0.00    0.08    0.00
    2   89.58   12.01    4.13    7.61   21.97    0.00  150.04   34.66   67.64   24.33    0.88    0.01    0.02    1.01    0.00     0.81    0.00    0.11    0.00
    3  100.35   11.33   10.00   17.28   43.58    0.00  144.98   40.74   76.85   39.58    1.23    0.01    0.04    2.02    0.00     1.01    0.00    0.13    0.00
    4  211.40   60.16   11.04   30.17   58.41    0.00  148.69   73.25  108.78  102.18    6.37    1.08    0.05    2.78   10.44     4.13    0.01    0.56    0.00
    5  260.60   81.08   18.45   51.18   78.27    0.00  148.22   81.08  111.25  152.40    6.55    0.04    0.07    3.54    9.55     3.23    0.01    0.44    0.00
    6  209.66   53.18   14.91   54.24   50.15    0.00  139.15   99.74  129.50  124.34    2.04    0.09    0.03    0.42    3.56     0.79    0.00    0.11    0.00
    7  249.33   57.35   18.08   56.50   53.10    0.00  133.51  127.33  158.86  134.12    0.81    0.12    0.03    0.58    7.25     0.32    0.01    0.04    0.00
    8  173.47   23.98   10.85   48.04   23.02    0.00  145.52  104.23  135.72   85.20    0.19    0.01    0.01    0.11    0.69     0.11    0.00    0.02    0.00
    9   69.83    6.51    7.46   32.84   12.05    0.00  124.48   69.06  118.43   48.89    0.05    0.01    0.01    0.06    0.23     0.03    0.00    0.01    0.00
   10    6.55    0.05    1.36   11.92    0.00    0.00  104.31   28.31  130.10   15.16    0.00    0.00    0.00    0.00    0.01     0.00    0.00    0.00    0.00
   11   65.31    5.03    2.74    3.31    2.09    0.00  131.08   28.47   64.71   12.49    0.05    0.02    0.01    0.06    0.00     0.04    0.00    0.01    0.00
   12   67.38    4.55    3.04    1.88   20.46    0.00  147.48   20.08   57.52   10.59    0.10    0.01    0.01    0.68    0.00     0.07    0.00    0.01    0.00

 2004 1591.49  327.46  107.16  317.23  379.93    0.00  147.48  732.58 1200.41  769.70   18.88    1.43    0.30   11.97   31.72    11.16    0.04    1.52    0.00
1
    SWAT Dec 11 2014    VER 2012/Rev 635                                            

    General Input/Output section (file.cio):                                        
    2020/9/9 0:00:00 ARCGIS-SWAT interface AV                                       
                                                                                    
Annual Summary for Watershed in year    6 of simulation

UNIT                                    PERCO    TILE                           WATER     SED     NO3     NO3     NO3     NO3        N       P       P
TIME     PREC    SURQ    LATQ     GWQ    LATE       Q     SW       ET     PET   YIELD   YIELD    SURQ    LATQ    PERC    CROP  ORGANIC SOLUBLE ORGANIC TILENO3
         (mm)    (mm)    (mm)    (mm)    (mm)    (mm)    (mm)    (mm)    (mm)    (mm)    (mm)   ------------------(kg nutrient/ha)-------------------- (kg/ha)
    1   94.18    9.57    8.15   12.03   51.41    0.00  148.56   21.44   30.22   30.76    0.32    0.01    0.03    1.83    0.00     0.32    0.00    0.05    0.00
    2  161.59   35.79   15.48   36.14   89.51    0.00  148.84   17.17   22.88   88.63    1.86    0.01    0.05    2.25    0.00     1.75    0.01    0.24    0.00
    3  151.09   29.79   12.51   57.79   71.00    0.00  148.67   34.67   49.31  101.94    3.37    0.01    0.03    1.12    0.00     2.58    0.00    0.34    0.00
    4  100.67   15.81   11.28   59.50   20.74    0.00  143.07   63.35  105.07   88.79    1.86    0.24    0.02    0.24    2.21     1.34    0.00    0.18    0.00
    5  279.76   97.47   15.44   55.58   68.86    0.00  144.76   92.80  116.67  170.86   12.85    0.62    0.10    4.11   15.89     6.84    0.01    0.92    0.00
    6  258.82  111.20   10.36   48.83   35.51    0.00  143.52   99.70  137.72  172.78    4.10    0.05    0.04    0.85    5.60     1.72    0.01    0.24    0.00
    7  126.76   12.73    9.83   37.55    8.21    0.00  116.89  127.32  183.56   62.46    0.13    0.02    0.01    0.01    6.89     0.06    0.00    0.01    0.00
    8  112.14    8.14    5.52   17.94    1.37    0.00  125.44   90.07  142.70   33.59    0.06    0.02    0.01    0.03    1.02     0.04    0.00    0.01    0.00
    9  101.09   18.28    7.37   11.06   17.73    0.00  119.84   64.32  112.48   38.31    0.15    0.02    0.01    0.11    0.25     0.10    0.00    0.02    0.00
   10   41.69    1.04    2.72    7.75    1.18    0.00  119.53   38.91   99.68   12.89    0.01    0.01    0.00    0.01    0.00     0.01    0.00    0.00    0.00
   11  176.40   58.12   10.61   11.26   52.12    0.00  143.31   27.49   42.94   81.14    0.89    0.03    0.03    1.36    0.00     0.60    0.01    0.10    0.00
   12   38.04    5.70    4.50   24.31    8.96    0.00  140.03   24.32   45.80   35.79    0.11    0.01    0.01    0.25    0.00     0.07    0.00    0.01    0.00

 2005 1642.23  403.63  113.78  379.74  426.59    0.00  140.03  701.56 1089.02  917.94   25.71    1.04    0.34   12.18   31.87    15.42    0.05    2.11    0.00
1
    SWAT Dec 11 2014    VER 2012/Rev 635                                            

    General Input/Output section (file.cio):                                        
    2020/9/9 0:00:00 ARCGIS-SWAT interface AV                                       
                                                                                    
Annual Summary for Watershed in year    7 of simulation

UNIT                                    PERCO    TILE                           WATER     SED     NO3     NO3     NO3     NO3        N       P       P
TIME     PREC    SURQ    LATQ     GWQ    LATE       Q     SW       ET     PET   YIELD   YIELD    SURQ    LATQ    PERC    CROP  ORGANIC SOLUBLE ORGANIC TILENO3
         (mm)    (mm)    (mm)    (mm)    (mm)    (mm)    (mm)    (mm)    (mm)    (mm)    (mm)   ------------------(kg nutrient/ha)-------------------- (kg/ha)
    1   80.90   18.52    5.89   19.33   33.40    0.00  142.67   18.44   31.30   44.94    0.88    0.01    0.02    1.10    0.00     0.76    0.00    0.10    0.00
    2  146.17   25.72    9.01   23.50   74.49    0.00  150.89   20.91   23.98   59.31    2.39    0.01    0.03    2.12    0.00     1.80    0.00    0.24    0.00
    3  121.63   22.86   14.24   46.46   55.40    0.00  145.20   37.33   49.70   85.24    2.61    0.01    0.03    1.05    0.00     1.79    0.00    0.24    0.00
    4  258.51  112.91   15.27   57.02   64.39    0.00  147.49   60.81   85.13  187.10   23.18    1.00    0.04    1.11    4.94    12.60    0.01    1.62    0.00
    5  176.88   53.00   14.04   59.75   43.47    0.00  138.35   76.78  120.47  129.25    6.16    0.32    0.08    2.21   14.94     2.23    0.00    0.30    0.00
    6  309.61  124.69   17.12   56.03   78.94    0.00  138.68   82.75  119.29  200.28    7.64    0.01    0.05    2.94    3.92     2.28    0.01    0.32    0.00
    7  207.14   77.97   15.17   58.22   35.89    0.00  116.79  103.33  156.76  154.03    1.94    0.10    0.02    0.09    6.87     0.47    0.00    0.06    0.00
    8  112.11   26.79    7.35   40.95    6.90    0.00  100.29   90.93  165.71   77.62    0.41    0.05    0.01    0.02    2.05     0.11    0.00    0.01    0.00
    9   39.86    2.76    2.68   13.18    0.02    0.00   91.06   46.32  127.27   20.66    0.03    0.02    0.00    0.00    0.22     0.02    0.00    0.00    0.00
   10   59.98    8.65    2.47    2.53    0.13    0.00  107.27   33.29   97.53   15.30    0.14    0.04    0.00    0.01    0.00     0.07    0.00    0.02    0.00
   11   64.29    2.54    2.83    0.44    4.43    0.00  139.47   20.82   69.97    7.02    0.04    0.01    0.01    0.16    0.00     0.02    0.00    0.00    0.00
   12   20.63    1.78    3.16    2.87    3.79    0.00  127.88   25.75   54.46    8.79    0.04    0.00    0.01    0.11    0.00     0.02    0.00    0.00    0.00

 2006 1597.71  478.18  109.23  380.29  401.27    0.00  127.88  617.46 1101.56  989.52   45.44    1.59    0.30   10.94   32.94    22.16    0.04    2.93    0.00
1
    SWAT Dec 11 2014    VER 2012/Rev 635                                            

    General Input/Output section (file.cio):                                        
    2020/9/9 0:00:00 ARCGIS-SWAT interface AV                                       
                                                                                    
Annual Summary for Watershed in year    8 of simulation

UNIT                                    PERCO    TILE                           WATER     SED     NO3     NO3     NO3     NO3        N       P       P
TIME     PREC    SURQ    LATQ     GWQ    LATE       Q     SW       ET     PET   YIELD   YIELD    SURQ    LATQ    PERC    CROP  ORGANIC SOLUBLE ORGANIC TILENO3
         (mm)    (mm)    (mm)    (mm)    (mm)    (mm)    (mm)    (mm)    (mm)    (mm)    (mm)   ------------------(kg nutrient/ha)-------------------- (kg/ha)
    1   87.59   12.06    6.02    7.10   29.58    0.00  139.38   26.38   40.61   26.01    0.52    0.01    0.03    1.17    0.00     0.39    0.00    0.06    0.00
    2  103.25   16.38    5.28   13.04   36.22    0.00  150.61   29.97   56.28   35.37    1.44    0.01    0.02    1.34    0.00     0.92    0.00    0.12    0.00
    3  128.56   30.82   13.09   30.38   58.02    0.00  141.11   36.27   52.44   75.45    4.49    0.01    0.04    1.88    0.00     2.54    0.00    0.33    0.00
    4  139.98   28.97    8.61   36.41   39.52    0.00  147.56   54.05   82.74   75.30    2.56    0.54    0.03    1.57    7.37     1.32    0.00    0.18    0.00
    5   62.02   10.12    7.50   36.22    2.41    0.00  119.71   76.20  142.63   55.35    0.80    0.35    0.04    0.03   13.87     0.34    0.00    0.05    0.00
    6  183.78   55.15    6.75   22.25   22.11    0.00  136.40   79.19  112.73   85.47    1.74    0.16    0.02    0.33    4.52     0.63    0.00    0.09    0.00
    7   38.08    4.80    5.81   14.91    0.45    0.00   65.41  104.77  194.36   26.83    0.16    0.02    0.01    0.00    6.82     0.04    0.00    0.01    0.00
    8  156.71   15.84    5.97    4.11    3.98    0.00  106.54   87.27  163.93   26.99    0.18    0.03    0.01    0.08    0.46     0.13    0.00    0.02    0.00
    9  100.14   16.37    8.75    6.22   12.86    0.00  122.19   48.53   92.82   32.22    0.17    0.04    0.01    0.19    0.11     0.13    0.00    0.03    0.00
   10    3.44    0.01    1.55    6.20    0.00    0.00  100.36   27.08  130.08    8.54    0.00    0.00    0.00    0.00    0.00     0.00    0.00    0.00    0.00
   11   10.71    0.11    0.56    1.10    0.00    0.00   97.24   14.55  100.35    2.37    0.00    0.01    0.00    0.00    0.00     0.00    0.00    0.00    0.00
   12   74.58    4.89    2.51    0.36    5.98    0.00  139.27   16.84   46.76    8.24    0.18    0.01    0.01    0.21    0.00     0.12    0.00    0.02    0.00

 2007 1088.82  195.53   72.42  178.29  211.13    0.00  139.27  601.09 1215.71  458.15   12.24    1.18    0.22    6.80   33.16     6.56    0.02    0.90    0.00
1
    SWAT Dec 11 2014    VER 2012/Rev 635                                            

    General Input/Output section (file.cio):                                        
    2020/9/9 0:00:00 ARCGIS-SWAT interface AV                                       
                                                                                    
Annual Summary for Watershed in year    9 of simulation

UNIT                                    PERCO    TILE                           WATER     SED     NO3     NO3     NO3     NO3        N       P       P
TIME     PREC    SURQ    LATQ     GWQ    LATE       Q     SW       ET     PET   YIELD   YIELD    SURQ    LATQ    PERC    CROP  ORGANIC SOLUBLE ORGANIC TILENO3
         (mm)    (mm)    (mm)    (mm)    (mm)    (mm)    (mm)    (mm)    (mm)    (mm)    (mm)   ------------------(kg nutrient/ha)-------------------- (kg/ha)
    1   92.54    9.85    4.83    3.22   25.41    0.00  148.17   11.50   21.33   18.26    0.85    0.01    0.02    0.91    0.00     0.62    0.00    0.08    0.00
    2   64.25   14.87    9.34   18.19   47.90    0.00  143.93   26.39   41.45   43.02    1.44    0.01    0.04    1.79    0.00     1.03    0.00    0.14    0.00
    3  183.58   39.02   11.88   31.74   67.62    0.00  149.11   55.35   83.22   83.58    7.40    0.02    0.03    1.95    0.00     4.31    0.01    0.57    0.00
    4  109.24   17.54   12.99   46.22   37.20    0.00  129.64   65.22   97.50   78.11    4.20    0.31    0.04    0.83    5.60     2.24    0.00    0.29    0.00
    5  147.24   46.99    6.42   40.23    8.28    0.00  132.69   83.14  135.06   95.23    6.53    0.61    0.03    0.18   15.31     2.77    0.00    0.39    0.00
    6  179.64   62.47    9.86   25.69   24.60    0.00  121.84   93.17  124.21   99.47    4.76    0.01    0.03    0.58    4.39     1.61    0.00    0.22    0.00
    7  119.38   17.58    6.51   18.51    6.13    0.00  105.84  106.16  155.55   43.98    0.42    0.02    0.01    0.04    7.09     0.14    0.00    0.02    0.00
    8  127.71   21.39    6.76    7.72    4.59    0.00  113.81   88.07  135.77   37.05    0.26    0.03    0.01    0.04    0.59     0.13    0.00    0.02    0.00
    9  111.93   33.31    5.36    4.54    5.26    0.00  125.58   57.21  108.12   44.15    0.35    0.07    0.01    0.07    0.08     0.28    0.01    0.05    0.00
   10   69.16   13.32    2.67    2.92    3.79    0.00  141.23   33.87   89.05   19.26    0.65    0.04    0.00    0.09    0.00     0.21    0.00    0.03    0.00
   11  166.78   68.10   12.32   17.30   54.29    0.00  138.88   33.59   51.39   99.00    2.48    0.03    0.04    1.85    0.00     1.02    0.01    0.16    0.00
   12    9.48    0.02    1.85   20.92    0.00    0.00  131.11   17.97   44.82   23.77    0.00    0.00    0.01    0.00    0.00     0.00    0.00    0.00    0.00

 2008 1380.92  344.44   90.79  237.19  285.08    0.00  131.11  671.64 1087.47  684.88   29.34    1.16    0.26    8.34   33.07    14.36    0.05    1.97    0.00
1
    SWAT Dec 11 2014    VER 2012/Rev 635                                            

    General Input/Output section (file.cio):                                        
    2020/9/9 0:00:00 ARCGIS-SWAT interface AV                                       
                                                                                    
Annual Summary for Watershed in year   10 of simulation

UNIT                                    PERCO    TILE                           WATER     SED     NO3     NO3     NO3     NO3        N       P       P
TIME     PREC    SURQ    LATQ     GWQ    LATE       Q     SW       ET     PET   YIELD   YIELD    SURQ    LATQ    PERC    CROP  ORGANIC SOLUBLE ORGANIC TILENO3
         (mm)    (mm)    (mm)    (mm)    (mm)    (mm)    (mm)    (mm)    (mm)    (mm)    (mm)   ------------------(kg nutrient/ha)-------------------- (kg/ha)
    1   21.49    0.10    1.04   10.91    0.00    0.00  132.82   19.58   36.73   12.89    0.00    0.00    0.00    0.00    0.00     0.00    0.00    0.00    0.00
    2  111.65   25.19    3.43    3.66   33.82    0.00  146.53   28.99   47.83   32.60    4.28    0.00    0.01    1.21    0.00     2.63    0.00    0.34    0.00
    3  160.22   45.40   16.03   26.50   59.77    0.00  141.78   45.20   72.23   89.15   10.18    0.02    0.05    1.68    0.00     5.28    0.01    0.68    0.00
    4  227.89   84.72   14.58   40.12   63.08    0.00  140.43   64.38   98.41  140.69   15.99    1.35    0.05    1.85    8.72     6.27    0.01    0.81    0.00
    5  151.27   37.11   11.19   45.68   36.85    0.00  129.47   77.86  124.99   95.62    4.40    0.06    0.05    1.69    7.65     1.19    0.00    0.16    0.00
    6  152.90   47.54   11.31   41.71   19.75    0.00  111.98   95.27  141.70  102.24    4.32    0.00    0.03    0.54    4.70     0.91    0.00    0.12    0.00
    7  262.78  104.52   11.08   32.57   35.93    0.00  124.20   94.71  148.91  149.96    2.75    0.08    0.01    0.18    4.87     0.61    0.01    0.08    0.00
    8   82.42   23.07    8.92   26.27    7.87    0.00   94.55   78.53  137.66   59.91    0.41    0.01    0.01    0.09    0.55     0.11    0.00    0.02    0.00
    9   27.60    1.62    2.81   10.99    0.07    0.00   81.84   38.98  111.05   16.82    0.03    0.01    0.00    0.01    0.04     0.01    0.00    0.00    0.00
   10   37.75    1.08    1.53    2.22    0.00    0.00   95.06   23.35   91.51    5.97    0.02    0.02    0.00    0.00    0.00     0.01    0.00    0.00    0.00
   11   50.91    2.82    3.15    1.09    3.73    0.00  114.09   22.52   51.34    7.91    0.08    0.01    0.01    0.22    0.00     0.04    0.00    0.01    0.00
   12   68.48    5.49    5.06    4.64   17.76    0.00  129.50   24.20   36.14   15.91    0.32    0.13    0.02    0.85    0.00     0.13    0.00    0.02    0.00

 2009 1355.36  378.65   90.13  246.36  278.63    0.00  129.50  613.56 1098.51  729.67   42.80    1.70    0.27    8.32   26.52    17.19    0.03    2.24    0.00
1
    SWAT Dec 11 2014    VER 2012/Rev 635                                            

    General Input/Output section (file.cio):                                        
    2020/9/9 0:00:00 ARCGIS-SWAT interface AV                                       
                                                                                    
Annual Summary for Watershed in year   11 of simulation

UNIT                                    PERCO    TILE                           WATER     SED     NO3     NO3     NO3     NO3        N       P       P
TIME     PREC    SURQ    LATQ     GWQ    LATE       Q     SW       ET     PET   YIELD   YIELD    SURQ    LATQ    PERC    CROP  ORGANIC SOLUBLE ORGANIC TILENO3
         (mm)    (mm)    (mm)    (mm)    (mm)    (mm)    (mm)    (mm)    (mm)    (mm)    (mm)   ------------------(kg nutrient/ha)-------------------- (kg/ha)
    1   49.89    3.17    4.26    9.85   17.15    0.00  132.32   22.21   35.07   17.97    0.26    0.03    0.02    0.64    0.00     0.17    0.00    0.02    0.00
    2   43.79    4.20    5.84   15.07   20.66    0.00  121.79   25.12   50.37   25.80    0.44    0.00    0.02    0.71    0.00     0.27    0.00    0.04    0.00
    3  144.53   32.82    9.66   22.77   41.51    0.00  136.50   43.10   86.81   66.07    7.66    0.03    0.03    1.03    0.00     3.83    0.00    0.49    0.00
