1
    SWAT Dec 11 2014    VER 2012/Rev 635                                                                 0/ 0/   0      0: 0: 0

    General Input/Output section (file.cio):                                        
    2020/9/9 0:00:00 ARCGIS-SWAT interface AV                                       
                                                                                    


LULC  HRU       GIS  SUB  MGT  MON   AREAkm2  PRECIPmm
FRST    1 000010001    1    0    1.10067E+02   129.700
FRST    1 000010001    1    0    2.10067E+02    80.000
FRST    1 000010001    1    0    3.10067E+02   188.300
FRST    1 000010001    1    0    4.10067E+02   166.100
FRST    1 000010001    1    0    5.10067E+02   175.000
FRST    1 000010001    1    0    6.10067E+02   437.300
FRST    1 000010001    1    0    7.10067E+02   166.900
FRST    1 000010001    1    0    8.10067E+02   253.900
FRST    1 000010001    1    0    9.10067E+02   233.000
FRST    1 000010001    1    0   10.10067E+02   153.800
FRST    1 000010001    1    0   11.10067E+02   129.500
FRST    1 000010001    1    0   12.10067E+02    49.200
FRST    1 000010001    1    0 2000.10067E+02  2162.700
FRST    1 000010001    1    0    1.10067E+02   127.000
FRST    1 000010001    1    0    2.10067E+02    67.100
FRST    1 000010001    1    0    3.10067E+02   114.400
FRST    1 000010001    1    0    4.10067E+02   272.900
FRST    1 000010001    1    0    5.10067E+02   121.100
FRST    1 000010001    1    0    6.10067E+02   258.000
FRST    1 000010001    1    0    7.10067E+02   212.700
FRST    1 000010001    1    0    8.10067E+02   151.100
FRST    1 000010001    1    0    9.10067E+02     5.600
FRST    1 000010001    1    0   10.10067E+02    67.600
FRST    1 000010001    1    0   11.10067E+02    59.200
FRST    1 000010001    1    0   12.10067E+02    81.400
FRST    1 000010001    1    0 2001.10067E+02  1538.100
FRST    1 000010001    1    0    1.10067E+02    66.800
FRST    1 000010001    1    0    2.10067E+02    69.100
FRST    1 000010001    1    0    3.10067E+02   184.700
FRST    1 000010001    1    0    4.10067E+02   378.000
FRST    1 000010001    1    0    5.10067E+02   255.700
FRST    1 000010001    1    0    6.10067E+02   267.200
FRST    1 000010001    1    0    7.10067E+02   437.900
FRST    1 000010001    1    0    8.10067E+02   182.200
FRST    1 000010001    1    0    9.10067E+02   150.000
FRST    1 000010001    1    0   10.10067E+02   164.600
FRST    1 000010001    1    0   11.10067E+02   146.000
FRST    1 000010001    1    0   12.10067E+02    98.300
FRST    1 000010001    1    0 2002.10067E+02  2400.500
FRST    1 000010001    1    0    1.10067E+02    99.900
FRST    1 000010001    1    0    2.10067E+02   133.700
FRST    1 000010001    1    0    3.10067E+02   149.600
FRST    1 000010001    1    0    4.10067E+02   223.300
FRST    1 000010001    1    0    5.10067E+02   247.000
FRST    1 000010001    1    0    6.10067E+02   302.500
FRST    1 000010001    1    0    7.10067E+02   122.600
FRST    1 000010001    1    0    8.10067E+02   146.000
FRST    1 000010001    1    0    9.10067E+02   143.000
FRST    1 000010001    1    0   10.10067E+02    48.200
FRST    1 000010001    1    0   11.10067E+02    43.300
FRST    1 000010001    1    0   12.10067E+02    25.500
FRST    1 000010001    1    0 2003.10067E+02  1684.600
FRST    1 000010001    1    0    1.10067E+02    85.800
FRST    1 000010001    1    0    2.10067E+02    95.100
FRST    1 000010001    1    0    3.10067E+02   100.300
FRST    1 000010001    1    0    4.10067E+02   181.300
FRST    1 000010001    1    0    5.10067E+02   297.200
FRST    1 000010001    1    0    6.10067E+02   301.700
FRST    1 000010001    1    0    7.10067E+02   274.600
FRST    1 000010001    1    0    8.10067E+02   183.200
FRST    1 000010001    1    0    9.10067E+02    86.000
FRST    1 000010001    1    0   10.10067E+02     7.000
FRST    1 000010001    1    0   11.10067E+02    79.000
FRST    1 000010001    1    0   12.10067E+02    66.300
FRST    1 000010001    1    0 2004.10067E+02  1757.500
FRST    1 000010001    1    0    1.10067E+02    82.200
FRST    1 000010001    1    0    2.10067E+02   165.400
FRST    1 000010001    1    0    3.10067E+02   141.400
FRST    1 000010001    1    0    4.10067E+02   134.300
FRST    1 000010001    1    0    5.10067E+02   231.700
FRST    1 000010001    1    0    6.10067E+02   334.600
FRST    1 000010001    1    0    7.10067E+02   170.800
FRST    1 000010001    1    0    8.10067E+02   130.500
FRST    1 000010001    1    0    9.10067E+02   172.100
FRST    1 000010001    1    0   10.10067E+02    54.600
FRST    1 000010001    1    0   11.10067E+02   277.600
FRST    1 000010001    1    0   12.10067E+02    39.900
FRST    1 000010001    1    0 2005.10067E+02  1935.100
FRST    1 000010001    1    0    1.10067E+02    82.500
FRST    1 000010001    1    0    2.10067E+02   129.000
FRST    1 000010001    1    0    3.10067E+02   124.200
FRST    1 000010001    1    0    4.10067E+02   291.000
FRST    1 000010001    1    0    5.10067E+02   247.000
FRST    1 000010001    1    0    6.10067E+02   287.000
FRST    1 000010001    1    0    7.10067E+02   161.500
FRST    1 000010001    1    0    8.10067E+02   163.500
FRST    1 000010001    1    0    9.10067E+02    76.500
FRST    1 000010001    1    0   10.10067E+02    92.000
FRST    1 000010001    1    0   11.10067E+02    72.000
FRST    1 000010001    1    0   12.10067E+02    23.000
FRST    1 000010001    1    0 2006.10067E+02  1749.200
FRST    1 000010001    1    0    1.10067E+02    79.500
FRST    1 000010001    1    0    2.10067E+02   101.800
FRST    1 000010001    1    0    3.10067E+02   130.000
FRST    1 000010001    1    0    4.10067E+02   145.000
FRST    1 000010001    1    0    5.10067E+02    88.500
FRST    1 000010001    1    0    6.10067E+02   205.000
FRST    1 000010001    1    0    7.10067E+02    54.500
FRST    1 000010001    1    0    8.10067E+02   185.000
FRST    1 000010001    1    0    9.10067E+02    86.000
FRST    1 000010001    1    0   10.10067E+02     6.500
FRST    1 000010001    1    0   11.10067E+02    13.500
FRST    1 000010001    1    0   12.10067E+02    64.500
FRST    1 000010001    1    0 2007.10067E+02  1159.800
FRST    1 000010001    1    0    1.10067E+02    70.900
FRST    1 000010001    1    0    2.10067E+02    61.500
FRST    1 000010001    1    0    3.10067E+02   151.600
FRST    1 000010001    1    0    4.10067E+02   138.500
FRST    1 000010001    1    0    5.10067E+02   149.500
FRST    1 000010001    1    0    6.10067E+02   225.500
FRST    1 000010001    1    0    7.10067E+02   230.500
FRST    1 000010001    1    0    8.10067E+02   213.000
FRST    1 000010001    1    0    9.10067E+02    95.500
FRST    1 000010001    1    0   10.10067E+02    80.500
FRST    1 000010001    1    0   11.10067E+02   135.800
FRST    1 000010001    1    0   12.10067E+02    13.800
FRST    1 000010001    1    0 2008.10067E+02  1566.600
FRST    1 000010001    1    0    1.10067E+02    17.700
FRST    1 000010001    1    0    2.10067E+02   128.700
FRST    1 000010001    1    0    3.10067E+02   165.500
FRST    1 000010001    1    0    4.10067E+02   223.500
FRST    1 000010001    1    0    5.10067E+02   162.500
FRST    1 000010001    1    0    6.10067E+02   194.000
FRST    1 000010001    1    0    7.10067E+02   210.500
FRST    1 000010001    1    0    8.10067E+02    63.000
FRST    1 000010001    1    0    9.10067E+02    66.500
FRST    1 000010001    1    0   10.10067E+02    25.500
FRST    1 000010001    1    0   11.10067E+02    43.500
FRST    1 000010001    1    0   12.10067E+02    76.900
FRST    1 000010001    1    0 2009.10067E+02  1377.800
FRST    1 000010001    1    0    1.10067E+02    59.700
FRST    1 000010001    1    0    2.10067E+02    60.900
