1
    SWAT Dec 11 2014    VER 2012/Rev 635                                                                 0/ 0/   0      0: 0: 0

    General Input/Output section (file.cio):                                        
    2020/9/9 0:00:00 ARCGIS-SWAT interface AV                                       
                                                                                    


       RCH      GIS   MON      AREAkm2  FLOW_INcms
REACH    1     2000     1   0.4585E+02  0.7773E+00  0.1401E-44
REACH    2     2000     1   0.8619E+02  0.1469E+01  0.2803E-44
REACH    3     2000     1   0.2798E+02  0.4830E+00  0.4204E-44
REACH    4     2000     1   0.1567E+03  0.2639E+01  0.5605E-44
REACH    5     2000     1   0.2745E+02  0.4081E+00  0.7006E-44
REACH    6     2000     1   0.3813E+02  0.6807E+00  0.8408E-44
REACH    7     2000     1   0.6591E+02  0.1092E+01  0.9809E-44
REACH    8     2000     1   0.2116E+03  0.3542E+01  0.1121E-43
REACH    9     2000     1   0.2220E+02  0.3437E+00  0.1261E-43
REACH   10     2000     1   0.2910E+03  0.4831E+01  0.1401E-43
REACH   11     2000     1   0.2229E+02  0.3821E+00  0.1541E-43
REACH   12     2000     1   0.3278E+02  0.5081E+00  0.1682E-43
REACH   13     2000     1   0.3212E+03  0.5286E+01  0.1822E-43
REACH   14     2000     1   0.2269E+02  0.3089E+00  0.1962E-43
REACH   15     2000     1   0.3566E+03  0.5833E+01  0.2102E-43
REACH   16     2000     1   0.3793E+03  0.6142E+01  0.2242E-43
REACH   17     2000     1   0.1357E+03  0.2086E+01  0.2382E-43
REACH   18     2000     1   0.9057E+02  0.1468E+01  0.2522E-43
REACH   19     2000     1   0.4180E+02  0.5740E+00  0.2662E-43
REACH   20     2000     1   0.4584E+02  0.7470E+00  0.2803E-43
REACH   21     2000     1   0.4139E+02  0.5803E+00  0.2943E-43
REACH   22     2000     1   0.2514E+02  0.3559E+00  0.3083E-43
REACH   23     2000     1   0.7947E+02  0.1198E+01  0.3223E-43
REACH   24     2000     1   0.5399E+03  0.8540E+01  0.3363E-43
REACH   25     2000     1   0.2292E+02  0.3663E+00  0.3503E-43
REACH   26     2000     1   0.7101E+02  0.9953E+00  0.3643E-43
REACH   27     2000     1   0.6298E+03  0.9852E+01  0.3784E-43
REACH   28     2000     1   0.3009E+02  0.4006E+00  0.3924E-43
REACH   29     2000     1   0.7268E+03  0.1109E+02  0.4064E-43
REACH   30     2000     1   0.4343E+02  0.5785E+00  0.4204E-43
REACH   31     2000     1   0.1261E+03  0.1847E+01  0.4344E-43
REACH   32     2000     1   0.3299E+02  0.4386E+00  0.4484E-43
REACH   33     2000     1   0.3851E+02  0.5886E+00  0.4624E-43
REACH   34     2000     1   0.7461E+02  0.1149E+01  0.4764E-43
REACH   35     2000     1   0.7673E+03  0.1161E+02  0.4905E-43
REACH   36     2000     1   0.8628E+02  0.1120E+01  0.5045E-43
REACH   37     2000     1   0.1832E+03  0.2620E+01  0.5185E-43
REACH   38     2000     1   0.6659E+02  0.8939E+00  0.5325E-43
REACH   39     2000     1   0.8468E+03  0.1282E+02  0.5465E-43
REACH   40     2000     1   0.8924E+02  0.1246E+01  0.5605E-43
REACH   41     2000     1   0.9498E+03  0.1417E+02  0.5745E-43
REACH   42     2000     1   0.8311E+02  0.1084E+01  0.5885E-43
REACH   43     2000     1   0.6887E+02  0.1028E+01  0.6026E-43
REACH   44     2000     1   0.1083E+04  0.1599E+02  0.6166E-43
REACH   45     2000     1   0.3193E+02  0.4144E+00  0.6306E-43
REACH   46     2000     1   0.1163E+04  0.1717E+02  0.6446E-43
REACH   47     2000     1   0.3257E+03  0.4467E+01  0.6586E-43
REACH   48     2000     1   0.3319E+02  0.4971E+00  0.6726E-43
REACH   49     2000     1   0.5702E+02  0.7833E+00  0.6866E-43
REACH   50     2000     1   0.1208E+04  0.1776E+02  0.7006E-43
REACH   51     2000     1   0.7000E+02  0.1074E+01  0.7147E-43
REACH   52     2000     1   0.3846E+03  0.5396E+01  0.7287E-43
REACH   53     2000     1   0.4831E+03  0.6923E+01  0.7427E-43
REACH   54     2000     1   0.4246E+04  0.6048E+02  0.7567E-43
REACH   55     2000     1   0.3064E+02  0.6501E+00  0.7707E-43
REACH   56     2000     1   0.1274E+04  0.1868E+02  0.7847E-43
REACH   57     2000     1   0.2057E+04  0.2962E+02  0.7987E-43
REACH   58     2000     1   0.7812E+03  0.1092E+02  0.8128E-43
REACH   59     2000     1   0.3367E+02  0.5182E+00  0.8268E-43
REACH   60     2000     1   0.3879E+02  0.4605E+00  0.8408E-43
REACH   61     2000     1   0.5714E+03  0.8332E+01  0.8548E-43
REACH   62     2000     1   0.7481E+03  0.1050E+02  0.8688E-43
REACH   63     2000     1   0.6197E+03  0.8887E+01  0.8828E-43
REACH   64     2000     1   0.4169E+04  0.5897E+02  0.8968E-43
REACH   65     2000     1   0.3903E+02  0.6084E+00  0.9108E-43
REACH   66     2000     1   0.4008E+04  0.5600E+02  0.9249E-43
REACH   67     2000     1   0.3960E+04  0.5523E+02  0.9389E-43
REACH   68     2000     1   0.4046E+04  0.5667E+02  0.9529E-43
REACH   69     2000     1   0.2071E+02  0.3655E+00  0.9669E-43
REACH   70     2000     1   0.4427E+02  0.5922E+00  0.9809E-43
REACH   71     2000     1   0.2069E+04  0.2977E+02  0.9949E-43
REACH   72     2000     1   0.3180E+02  0.4170E+00  0.1009E-42
REACH   73     2000     1   0.2120E+04  0.3044E+02  0.1023E-42
REACH   74     2000     1   0.3799E+04  0.5293E+02  0.1037E-42
REACH   75     2000     1   0.3013E+02  0.3844E+00  0.1051E-42
REACH   76     2000     1   0.2146E+04  0.3078E+02  0.1065E-42
REACH   77     2000     1   0.2522E+02  0.3232E+00  0.1079E-42
REACH   78     2000     1   0.5191E+02  0.6596E+00  0.1093E-42
REACH   79     2000     1   0.3323E+02  0.5060E+00  0.1107E-42
REACH   80     2000     1   0.2881E+02  0.4151E+00  0.1121E-42
REACH   81     2000     1   0.2183E+04  0.3126E+02  0.1135E-42
REACH   82     2000     1   0.2212E+04  0.3168E+02  0.1149E-42
REACH   83     2000     1   0.4726E+02  0.6230E+00  0.1163E-42
REACH   84     2000     1   0.1599E+03  0.2287E+01  0.1177E-42
REACH   85     2000     1   0.5833E+02  0.8872E+00  0.1191E-42
REACH   86     2000     1   0.2327E+04  0.3311E+02  0.1205E-42
REACH   87     2000     1   0.8494E+02  0.1046E+01  0.1219E-42
REACH   88     2000     1   0.2048E+02  0.2586E+00  0.1233E-42
REACH   89     2000     1   0.3798E+04  0.5293E+02  0.1247E-42
REACH   90     2000     1   0.5319E+02  0.6981E+00  0.1261E-42
REACH   91     2000     1   0.2474E+02  0.3530E+00  0.1275E-42
REACH   92     2000     1   0.5608E+02  0.6895E+00  0.1289E-42
REACH   93     2000     1   0.8423E+02  0.1109E+01  0.1303E-42
REACH   94     2000     1   0.3037E+02  0.4038E+00  0.1317E-42
REACH   95     2000     1   0.1498E+03  0.1904E+01  0.1331E-42
REACH   96     2000     1   0.2482E+04  0.3536E+02  0.1345E-42
REACH   97     2000     1   0.2402E+04  0.3420E+02  0.1359E-42
REACH   98     2000     1   0.3888E+02  0.4712E+00  0.1373E-42
REACH   99     2000     1   0.1053E+03  0.1943E+01  0.1387E-42
REACH  100     2000     1   0.2271E+02  0.2518E+00  0.1401E-42
REACH  101     2000     1   0.3582E+04  0.5005E+02  0.1415E-42
REACH  102     2000     1   0.2002E+02  0.2685E+00  0.1429E-42
REACH  103     2000     1   0.3692E+04  0.5148E+02  0.1443E-42
REACH  104     2000     1   0.3420E+04  0.4801E+02  0.1457E-42
REACH  105     2000     1   0.2033E+02  0.2595E+00  0.1471E-42
REACH  106     2000     1   0.3631E+04  0.5064E+02  0.1485E-42
REACH  107     2000     1   0.2536E+04  0.3608E+02  0.1499E-42
REACH  108     2000     1   0.6391E+02  0.8946E+00  0.1513E-42
REACH  109     2000     1   0.3877E+02  0.5282E+00  0.1527E-42
REACH  110     2000     1   0.7494E+02  0.1117E+01  0.1541E-42
REACH  111     2000     1   0.3370E+04  0.4737E+02  0.1555E-42
REACH  112     2000     1   0.2896E+04  0.4092E+02  0.1569E-42
REACH  113     2000     1   0.6641E+02  0.9497E+00  0.1583E-42
REACH  114     2000     1   0.2639E+04  0.3749E+02  0.1597E-42
REACH  115     2000     1   0.3289E+02  0.4543E+00  0.1611E-42
REACH  116     2000     1   0.2981E+02  0.4269E+00  0.1626E-42
REACH  117     2000     1   0.4442E+03  0.6098E+01  0.1640E-42
REACH  118     2000     1   0.2688E+04  0.3813E+02  0.1654E-42
REACH  119     2000     1   0.8247E+02  0.1127E+01  0.1668E-42
REACH  120     2000     1   0.2763E+04  0.3916E+02  0.1682E-42
REACH  121     2000     1   0.6670E+02  0.9411E+00  0.1696E-42
REACH  122     2000     1   0.2829E+04  0.3997E+02  0.1710E-42
REACH  123     2000     1   0.2424E+02  0.2987E+00  0.1724E-42
REACH  124     2000     1   0.3708E+03  0.5205E+01  0.1738E-42
REACH  125     2000     1   0.2659E+02  0.3284E+00  0.1752E-42
REACH  126     2000     1   0.6529E+02  0.7944E+00  0.1766E-42
REACH  127     2000     1   0.3280E+03  0.4683E+01  0.1780E-42
REACH  128     2000     1   0.8844E+02  0.1351E+01  0.1794E-42
REACH  129     2000     1   0.2608E+03  0.3827E+01  0.1808E-42
REACH  130     2000     1   0.1634E+03  0.2491E+01  0.1822E-42
REACH  131     2000     1   0.4010E+02  0.5215E+00  0.1836E-42
REACH  132     2000     1   0.7371E+02  0.1129E+01  0.1850E-42
REACH  133     2000     1   0.3998E+02  0.5699E+00  0.1864E-42
REACH    1     2000     2   0.4585E+02  0.8542E+00  0.1401E-44
REACH    2     2000     2   0.8619E+02  0.1585E+01  0.2803E-44
REACH    3     2000     2   0.2798E+02  0.5208E+00  0.4204E-44
REACH    4     2000     2   0.1567E+03  0.2886E+01  0.5605E-44
REACH    5     2000     2   0.2745E+02  0.4400E+00  0.7006E-44
REACH    6     2000     2   0.3813E+02  0.7109E+00  0.8408E-44
REACH    7     2000     2   0.6591E+02  0.1155E+01  0.9809E-44
REACH    8     2000     2   0.2116E+03  0.3893E+01  0.1121E-43
REACH    9     2000     2   0.2220E+02  0.3555E+00  0.1261E-43
REACH   10     2000     2   0.2910E+03  0.5257E+01  0.1401E-43
REACH   11     2000     2   0.2229E+02  0.4106E+00  0.1541E-43
REACH   12     2000     2   0.3278E+02  0.5290E+00  0.1682E-43
REACH   13     2000     2   0.3212E+03  0.5733E+01  0.1822E-43
REACH   14     2000     2   0.2269E+02  0.3533E+00  0.1962E-43
REACH   15     2000     2   0.3566E+03  0.6300E+01  0.2102E-43
REACH   16     2000     2   0.3793E+03  0.6653E+01  0.2242E-43
REACH   17     2000     2   0.1357E+03  0.2156E+01  0.2382E-43
REACH   18     2000     2   0.9057E+02  0.1482E+01  0.2522E-43
REACH   19     2000     2   0.4180E+02  0.6281E+00  0.2662E-43
REACH   20     2000     2   0.4584E+02  0.7126E+00  0.2803E-43
REACH   21     2000     2   0.4139E+02  0.6125E+00  0.2943E-43
REACH   22     2000     2   0.2514E+02  0.3767E+00  0.3083E-43
REACH   23     2000     2   0.7947E+02  0.1262E+01  0.3223E-43
REACH   24     2000     2   0.5399E+03  0.9175E+01  0.3363E-43
REACH   25     2000     2   0.2292E+02  0.3512E+00  0.3503E-43
REACH   26     2000     2   0.7101E+02  0.1054E+01  0.3643E-43
REACH   27     2000     2   0.6298E+03  0.1058E+02  0.3784E-43
REACH   28     2000     2   0.3009E+02  0.4645E+00  0.3924E-43
REACH   29     2000     2   0.7268E+03  0.1198E+02  0.4064E-43
REACH   30     2000     2   0.4343E+02  0.6325E+00  0.4204E-43
REACH   31     2000     2   0.1261E+03  0.1889E+01  0.4344E-43
REACH   32     2000     2   0.3299E+02  0.5005E+00  0.4484E-43
REACH   33     2000     2   0.3851E+02  0.6152E+00  0.4624E-43
REACH   34     2000     2   0.7461E+02  0.1186E+01  0.4764E-43
REACH   35     2000     2   0.7673E+03  0.1258E+02  0.4905E-43
REACH   36     2000     2   0.8628E+02  0.1257E+01  0.5045E-43
REACH   37     2000     2   0.1832E+03  0.2724E+01  0.5185E-43
REACH   38     2000     2   0.6659E+02  0.9730E+00  0.5325E-43
REACH   39     2000     2   0.8468E+03  0.1384E+02  0.5465E-43
REACH   40     2000     2   0.8924E+02  0.1372E+01  0.5605E-43
REACH   41     2000     2   0.9498E+03  0.1534E+02  0.5745E-43
REACH   42     2000     2   0.8311E+02  0.1208E+01  0.5885E-43
REACH   43     2000     2   0.6887E+02  0.1091E+01  0.6026E-43
REACH   44     2000     2   0.1083E+04  0.1738E+02  0.6166E-43
REACH   45     2000     2   0.3193E+02  0.4851E+00  0.6306E-43
REACH   46     2000     2   0.1163E+04  0.1863E+02  0.6446E-43
REACH   47     2000     2   0.3257E+03  0.4790E+01  0.6586E-43
REACH   48     2000     2   0.3319E+02  0.5987E+00  0.6726E-43
REACH   49     2000     2   0.5702E+02  0.8911E+00  0.6866E-43
REACH   50     2000     2   0.1208E+04  0.1931E+02  0.7006E-43
REACH   51     2000     2   0.7000E+02  0.1271E+01  0.7147E-43
REACH   52     2000     2   0.3846E+03  0.5855E+01  0.7287E-43
REACH   53     2000     2   0.4831E+03  0.7646E+01  0.7427E-43
REACH   54     2000     2   0.4246E+04  0.6660E+02  0.7567E-43
REACH   55     2000     2   0.3064E+02  0.5122E+00  0.7707E-43
REACH   56     2000     2   0.1274E+04  0.2035E+02  0.7847E-43
REACH   57     2000     2   0.2057E+04  0.3262E+02  0.7987E-43
REACH   58     2000     2   0.7812E+03  0.1226E+02  0.8128E-43
REACH   59     2000     2   0.3367E+02  0.6104E+00  0.8268E-43
REACH   60     2000     2   0.3879E+02  0.5550E+00  0.8408E-43
REACH   61     2000     2   0.5714E+03  0.9259E+01  0.8548E-43
REACH   62     2000     2   0.7481E+03  0.1179E+02  0.8688E-43
REACH   63     2000     2   0.6197E+03  0.9931E+01  0.8828E-43
REACH   64     2000     2   0.4169E+04  0.6538E+02  0.8968E-43
REACH   65     2000     2   0.3903E+02  0.6346E+00  0.9108E-43
REACH   66     2000     2   0.4008E+04  0.6275E+02  0.9249E-43
REACH   67     2000     2   0.3960E+04  0.6197E+02  0.9389E-43
REACH   68     2000     2   0.4046E+04  0.6336E+02  0.9529E-43
REACH   69     2000     2   0.2071E+02  0.3354E+00  0.9669E-43
REACH   70     2000     2   0.4427E+02  0.6695E+00  0.9809E-43
REACH   71     2000     2   0.2069E+04  0.3279E+02  0.9949E-43
REACH   72     2000     2   0.3180E+02  0.4650E+00  0.1009E-42
REACH   73     2000     2   0.2120E+04  0.3354E+02  0.1023E-42
REACH   74     2000     2   0.3799E+04  0.5941E+02  0.1037E-42
REACH   75     2000     2   0.3013E+02  0.4556E+00  0.1051E-42
REACH   76     2000     2   0.2146E+04  0.3392E+02  0.1065E-42
REACH   77     2000     2   0.2522E+02  0.3651E+00  0.1079E-42
REACH   78     2000     2   0.5191E+02  0.7597E+00  0.1093E-42
REACH   79     2000     2   0.3323E+02  0.5499E+00  0.1107E-42
REACH   80     2000     2   0.2881E+02  0.4480E+00  0.1121E-42
REACH   81     2000     2   0.2183E+04  0.3447E+02  0.1135E-42
REACH   82     2000     2   0.2212E+04  0.3492E+02  0.1149E-42
REACH   83     2000     2   0.4726E+02  0.7257E+00  0.1163E-42
REACH   84     2000     2   0.1599E+03  0.2555E+01  0.1177E-42
REACH   85     2000     2   0.5833E+02  0.9863E+00  0.1191E-42
REACH   86     2000     2   0.2327E+04  0.3655E+02  0.1205E-42
REACH   87     2000     2   0.8494E+02  0.1203E+01  0.1219E-42
REACH   88     2000     2   0.2048E+02  0.2987E+00  0.1233E-42
REACH   89     2000     2   0.3798E+04  0.5941E+02  0.1247E-42
REACH   90     2000     2   0.5319E+02  0.8655E+00  0.1261E-42
REACH   91     2000     2   0.2474E+02  0.4019E+00  0.1275E-42
REACH   92     2000     2   0.5608E+02  0.8798E+00  0.1289E-42
REACH   93     2000     2   0.8423E+02  0.1349E+01  0.1303E-42
REACH   94     2000     2   0.3037E+02  0.4753E+00  0.1317E-42
REACH   95     2000     2   0.1498E+03  0.2372E+01  0.1331E-42
REACH   96     2000     2   0.2482E+04  0.3903E+02  0.1345E-42
REACH   97     2000     2   0.2402E+04  0.3778E+02  0.1359E-42
REACH   98     2000     2   0.3888E+02  0.5467E+00  0.1373E-42
REACH   99     2000     2   0.1053E+03  0.1743E+01  0.1387E-42
REACH  100     2000     2   0.2271E+02  0.3518E+00  0.1401E-42
REACH  101     2000     2   0.3582E+04  0.5605E+02  0.1415E-42
REACH  102     2000     2   0.2002E+02  0.3172E+00  0.1429E-42
REACH  103     2000     2   0.3692E+04  0.5776E+02  0.1443E-42
REACH  104     2000     2   0.3420E+04  0.5351E+02  0.1457E-42
REACH  105     2000     2   0.2033E+02  0.3022E+00  0.1471E-42
REACH  106     2000     2   0.3631E+04  0.5680E+02  0.1485E-42
REACH  107     2000     2   0.2536E+04  0.3987E+02  0.1499E-42
REACH  108     2000     2   0.6391E+02  0.1007E+01  0.1513E-42
REACH  109     2000     2   0.3877E+02  0.6063E+00  0.1527E-42
REACH  110     2000     2   0.7494E+02  0.1191E+01  0.1541E-42
REACH  111     2000     2   0.3370E+04  0.5275E+02  0.1555E-42
REACH  112     2000     2   0.2896E+04  0.4542E+02  0.1569E-42
REACH  113     2000     2   0.6641E+02  0.1086E+01  0.1583E-42
REACH  114     2000     2   0.2639E+04  0.4146E+02  0.1597E-42
REACH  115     2000     2   0.3289E+02  0.5172E+00  0.1611E-42
REACH  116     2000     2   0.2981E+02  0.4724E+00  0.1626E-42
REACH  117     2000     2   0.4442E+03  0.6898E+01  0.1640E-42
REACH  118     2000     2   0.2688E+04  0.4221E+02  0.1654E-42
REACH  119     2000     2   0.8247E+02  0.1301E+01  0.1668E-42
REACH  120     2000     2   0.2763E+04  0.4337E+02  0.1682E-42
REACH  121     2000     2   0.6670E+02  0.1049E+01  0.1696E-42
REACH  122     2000     2   0.2829E+04  0.4434E+02  0.1710E-42
REACH  123     2000     2   0.2424E+02  0.3663E+00  0.1724E-42
REACH  124     2000     2   0.3708E+03  0.5809E+01  0.1738E-42
REACH  125     2000     2   0.2659E+02  0.3993E+00  0.1752E-42
REACH  126     2000     2   0.6529E+02  0.9754E+00  0.1766E-42
REACH  127     2000     2   0.3280E+03  0.5175E+01  0.1780E-42
REACH  128     2000     2   0.8844E+02  0.1442E+01  0.1794E-42
REACH  129     2000     2   0.2608E+03  0.4164E+01  0.1808E-42
REACH  130     2000     2   0.1634E+03  0.2655E+01  0.1822E-42
REACH  131     2000     2   0.4010E+02  0.6121E+00  0.1836E-42
REACH  132     2000     2   0.7371E+02  0.1199E+01  0.1850E-42
REACH  133     2000     2   0.3998E+02  0.6254E+00  0.1864E-42
REACH    1     2000     3   0.4585E+02  0.1822E+01  0.1401E-44
REACH    2     2000     3   0.8619E+02  0.3407E+01  0.2803E-44
REACH    3     2000     3   0.2798E+02  0.1115E+01  0.4204E-44
REACH    4     2000     3   0.1567E+03  0.6191E+01  0.5605E-44
REACH    5     2000     3   0.2745E+02  0.9836E+00  0.7006E-44
REACH    6     2000     3   0.3813E+02  0.1525E+01  0.8408E-44
REACH    7     2000     3   0.6591E+02  0.2519E+01  0.9809E-44
REACH    8     2000     3   0.2116E+03  0.8348E+01  0.1121E-43
REACH    9     2000     3   0.2220E+02  0.8066E+00  0.1261E-43
REACH   10     2000     3   0.2910E+03  0.1135E+02  0.1401E-43
REACH   11     2000     3   0.2229E+02  0.8766E+00  0.1541E-43
REACH   12     2000     3   0.3278E+02  0.1186E+01  0.1682E-43
REACH   13     2000     3   0.3212E+03  0.1243E+02  0.1822E-43
REACH   14     2000     3   0.2269E+02  0.8023E+00  0.1962E-43
REACH   15     2000     3   0.3566E+03  0.1371E+02  0.2102E-43
REACH   16     2000     3   0.3793E+03  0.1451E+02  0.2242E-43
REACH   17     2000     3   0.1357E+03  0.4865E+01  0.2382E-43
REACH   18     2000     3   0.9057E+02  0.3319E+01  0.2522E-43
REACH   19     2000     3   0.4180E+02  0.1429E+01  0.2662E-43
REACH   20     2000     3   0.4584E+02  0.1636E+01  0.2803E-43
REACH   21     2000     3   0.4139E+02  0.1412E+01  0.2943E-43
REACH   22     2000     3   0.2514E+02  0.8638E+00  0.3083E-43
REACH   23     2000     3   0.7947E+02  0.2872E+01  0.3223E-43
REACH   24     2000     3   0.5399E+03  0.2024E+02  0.3363E-43
REACH   25     2000     3   0.2292E+02  0.8219E+00  0.3503E-43
REACH   26     2000     3   0.7101E+02  0.2424E+01  0.3643E-43
REACH   27     2000     3   0.6298E+03  0.2345E+02  0.3784E-43
REACH   28     2000     3   0.3009E+02  0.1049E+01  0.3924E-43
REACH   29     2000     3   0.7268E+03  0.2669E+02  0.4064E-43
REACH   30     2000     3   0.4343E+02  0.1462E+01  0.4204E-43
REACH   31     2000     3   0.1261E+03  0.4372E+01  0.4344E-43
REACH   32     2000     3   0.3299E+02  0.1155E+01  0.4484E-43
REACH   33     2000     3   0.3851E+02  0.1403E+01  0.4624E-43
REACH   34     2000     3   0.7461E+02  0.2729E+01  0.4764E-43
REACH   35     2000     3   0.7673E+03  0.2807E+02  0.4905E-43
REACH   36     2000     3   0.8628E+02  0.2902E+01  0.5045E-43
REACH   37     2000     3   0.1832E+03  0.6306E+01  0.5185E-43
REACH   38     2000     3   0.6659E+02  0.2261E+01  0.5325E-43
REACH   39     2000     3   0.8468E+03  0.3097E+02  0.5465E-43
REACH   40     2000     3   0.8924E+02  0.3172E+01  0.5605E-43
REACH   41     2000     3   0.9498E+03  0.3447E+02  0.5745E-43
REACH   42     2000     3   0.8311E+02  0.2805E+01  0.5885E-43
REACH   43     2000     3   0.6887E+02  0.2472E+01  0.6026E-43
REACH   44     2000     3   0.1083E+04  0.3916E+02  0.6166E-43
REACH   45     2000     3   0.3193E+02  0.1114E+01  0.6306E-43
REACH   46     2000     3   0.1163E+04  0.4201E+02  0.6446E-43
REACH   47     2000     3   0.3257E+03  0.1106E+02  0.6586E-43
REACH   48     2000     3   0.3319E+02  0.1270E+01  0.6726E-43
REACH   49     2000     3   0.5702E+02  0.2004E+01  0.6866E-43
REACH   50     2000     3   0.1208E+04  0.4357E+02  0.7006E-43
REACH   51     2000     3   0.7000E+02  0.2714E+01  0.7147E-43
REACH   52     2000     3   0.3846E+03  0.1334E+02  0.7287E-43
REACH   53     2000     3   0.4831E+03  0.1716E+02  0.7427E-43
REACH   54     2000     3   0.4246E+04  0.1539E+03  0.7567E-43
REACH   55     2000     3   0.3064E+02  0.1353E+01  0.7707E-43
REACH   56     2000     3   0.1274E+04  0.4589E+02  0.7847E-43
REACH   57     2000     3   0.2057E+04  0.7335E+02  0.7987E-43
REACH   58     2000     3   0.7812E+03  0.2742E+02  0.8128E-43
REACH   59     2000     3   0.3367E+02  0.1310E+01  0.8268E-43
REACH   60     2000     3   0.3879E+02  0.1248E+01  0.8408E-43
REACH   61     2000     3   0.5714E+03  0.2061E+02  0.8548E-43
REACH   62     2000     3   0.7481E+03  0.2634E+02  0.8688E-43
REACH   63     2000     3   0.6197E+03  0.2214E+02  0.8828E-43
REACH   64     2000     3   0.4169E+04  0.1507E+03  0.8968E-43
REACH   65     2000     3   0.3903E+02  0.1519E+01  0.9108E-43
REACH   66     2000     3   0.4008E+04  0.1440E+03  0.9249E-43
REACH   67     2000     3   0.3960E+04  0.1421E+03  0.9389E-43
REACH   68     2000     3   0.4046E+04  0.1455E+03  0.9529E-43
REACH   69     2000     3   0.2071E+02  0.8444E+00  0.9669E-43
REACH   70     2000     3   0.4427E+02  0.1537E+01  0.9809E-43
REACH   71     2000     3   0.2069E+04  0.7376E+02  0.9949E-43
REACH   72     2000     3   0.3180E+02  0.1051E+01  0.1009E-42
REACH   73     2000     3   0.2120E+04  0.7550E+02  0.1023E-42
REACH   74     2000     3   0.3799E+04  0.1361E+03  0.1037E-42
REACH   75     2000     3   0.3013E+02  0.1036E+01  0.1051E-42
REACH   76     2000     3   0.2146E+04  0.7639E+02  0.1065E-42
REACH   77     2000     3   0.2522E+02  0.8402E+00  0.1079E-42
REACH   78     2000     3   0.5191E+02  0.1716E+01  0.1093E-42
REACH   79     2000     3   0.3323E+02  0.1271E+01  0.1107E-42
REACH   80     2000     3   0.2881E+02  0.1031E+01  0.1121E-42
REACH   81     2000     3   0.2183E+04  0.7765E+02  0.1135E-42
REACH   82     2000     3   0.2212E+04  0.7870E+02  0.1149E-42
REACH   83     2000     3   0.4726E+02  0.1726E+01  0.1163E-42
REACH   84     2000     3   0.1599E+03  0.5951E+01  0.1177E-42
REACH   85     2000     3   0.5833E+02  0.2213E+01  0.1191E-42
REACH   86     2000     3   0.2327E+04  0.8247E+02  0.1205E-42
REACH   87     2000     3   0.8494E+02  0.2780E+01  0.1219E-42
REACH   88     2000     3   0.2048E+02  0.6788E+00  0.1233E-42
REACH   89     2000     3   0.3798E+04  0.1361E+03  0.1247E-42
REACH   90     2000     3   0.5319E+02  0.1916E+01  0.1261E-42
REACH   91     2000     3   0.2474E+02  0.9182E+00  0.1275E-42
REACH   92     2000     3   0.5608E+02  0.1983E+01  0.1289E-42
REACH   93     2000     3   0.8423E+02  0.3041E+01  0.1303E-42
REACH   94     2000     3   0.3037E+02  0.1104E+01  0.1317E-42
REACH   95     2000     3   0.1498E+03  0.5346E+01  0.1331E-42
REACH   96     2000     3   0.2482E+04  0.8822E+02  0.1345E-42
REACH   97     2000     3   0.2402E+04  0.8528E+02  0.1359E-42
REACH   98     2000     3   0.3888E+02  0.1266E+01  0.1373E-42
REACH   99     2000     3   0.1053E+03  0.4377E+01  0.1387E-42
REACH  100     2000     3   0.2271E+02  0.7714E+00  0.1401E-42
REACH  101     2000     3   0.3582E+04  0.1280E+03  0.1415E-42
REACH  102     2000     3   0.2002E+02  0.7573E+00  0.1429E-42
REACH  103     2000     3   0.3692E+04  0.1321E+03  0.1443E-42
REACH  104     2000     3   0.3420E+04  0.1223E+03  0.1457E-42
REACH  105     2000     3   0.2033E+02  0.7400E+00  0.1471E-42
REACH  106     2000     3   0.3631E+04  0.1298E+03  0.1485E-42
REACH  107     2000     3   0.2536E+04  0.9017E+02  0.1499E-42
REACH  108     2000     3   0.6391E+02  0.2354E+01  0.1513E-42
REACH  109     2000     3   0.3877E+02  0.1419E+01  0.1527E-42
REACH  110     2000     3   0.7494E+02  0.2799E+01  0.1541E-42
REACH  111     2000     3   0.3370E+04  0.1204E+03  0.1555E-42
REACH  112     2000     3   0.2896E+04  0.1032E+03  0.1569E-42
REACH  113     2000     3   0.6641E+02  0.2457E+01  0.1583E-42
REACH  114     2000     3   0.2639E+04  0.9393E+02  0.1597E-42
REACH  115     2000     3   0.3289E+02  0.1205E+01  0.1611E-42
REACH  116     2000     3   0.2981E+02  0.1109E+01  0.1626E-42
REACH  117     2000     3   0.4442E+03  0.1616E+02  0.1640E-42
REACH  118     2000     3   0.2688E+04  0.9570E+02  0.1654E-42
REACH  119     2000     3   0.8247E+02  0.3166E+01  0.1668E-42
REACH  120     2000     3   0.2763E+04  0.9844E+02  0.1682E-42
REACH  121     2000     3   0.6670E+02  0.2470E+01  0.1696E-42
REACH  122     2000     3   0.2829E+04  0.1008E+03  0.1710E-42
REACH  123     2000     3   0.2424E+02  0.8580E+00  0.1724E-42
REACH  124     2000     3   0.3708E+03  0.1358E+02  0.1738E-42
REACH  125     2000     3   0.2659E+02  0.9431E+00  0.1752E-42
REACH  126     2000     3   0.6529E+02  0.2298E+01  0.1766E-42
REACH  127     2000     3   0.3280E+03  0.1207E+02  0.1780E-42
REACH  128     2000     3   0.8844E+02  0.3295E+01  0.1794E-42
REACH  129     2000     3   0.2608E+03  0.9669E+01  0.1808E-42
REACH  130     2000     3   0.1634E+03  0.6106E+01  0.1822E-42
REACH  131     2000     3   0.4010E+02  0.1445E+01  0.1836E-42
REACH  132     2000     3   0.7371E+02  0.2776E+01  0.1850E-42
REACH  133     2000     3   0.3998E+02  0.1485E+01  0.1864E-42
REACH    1     2000     4   0.4585E+02  0.2062E+01  0.1401E-44
REACH    2     2000     4   0.8619E+02  0.3840E+01  0.2803E-44
REACH    3     2000     4   0.2798E+02  0.1258E+01  0.4204E-44
REACH    4     2000     4   0.1567E+03  0.7006E+01  0.5605E-44
REACH    5     2000     4   0.2745E+02  0.1306E+01  0.7006E-44
REACH    6     2000     4   0.3813E+02  0.1706E+01  0.8408E-44
REACH    7     2000     4   0.6591E+02  0.3024E+01  0.9809E-44
REACH    8     2000     4   0.2116E+03  0.9472E+01  0.1121E-43
REACH    9     2000     4   0.2220E+02  0.1062E+01  0.1261E-43
REACH   10     2000     4   0.2910E+03  0.1313E+02  0.1401E-43
REACH   11     2000     4   0.2229E+02  0.9926E+00  0.1541E-43
REACH   12     2000     4   0.3278E+02  0.1559E+01  0.1682E-43
REACH   13     2000     4   0.3212E+03  0.1457E+02  0.1822E-43
REACH   14     2000     4   0.2269E+02  0.1077E+01  0.1962E-43
REACH   15     2000     4   0.3566E+03  0.1625E+02  0.2102E-43
REACH   16     2000     4   0.3793E+03  0.1732E+02  0.2242E-43
REACH   17     2000     4   0.1357E+03  0.6619E+01  0.2382E-43
REACH   18     2000     4   0.9057E+02  0.4361E+01  0.2522E-43
REACH   19     2000     4   0.4180E+02  0.2103E+01  0.2662E-43
REACH   20     2000     4   0.4584E+02  0.2303E+01  0.2803E-43
REACH   21     2000     4   0.4139E+02  0.2047E+01  0.2943E-43
REACH   22     2000     4   0.2514E+02  0.1253E+01  0.3083E-43
REACH   23     2000     4   0.7947E+02  0.3762E+01  0.3223E-43
REACH   24     2000     4   0.5399E+03  0.2513E+02  0.3363E-43
REACH   25     2000     4   0.2292E+02  0.1165E+01  0.3503E-43
REACH   26     2000     4   0.7101E+02  0.3519E+01  0.3643E-43
REACH   27     2000     4   0.6298E+03  0.2936E+02  0.3784E-43
REACH   28     2000     4   0.3009E+02  0.1416E+01  0.3924E-43
REACH   29     2000     4   0.7268E+03  0.3421E+02  0.4064E-43
REACH   30     2000     4   0.4343E+02  0.2171E+01  0.4204E-43
REACH   31     2000     4   0.1261E+03  0.6295E+01  0.4344E-43
REACH   32     2000     4   0.3299E+02  0.1559E+01  0.4484E-43
REACH   33     2000     4   0.3851E+02  0.1836E+01  0.4624E-43
REACH   34     2000     4   0.7461E+02  0.3562E+01  0.4764E-43
REACH   35     2000     4   0.7673E+03  0.3614E+02  0.4905E-43
REACH   36     2000     4   0.8628E+02  0.4329E+01  0.5045E-43
REACH   37     2000     4   0.1832E+03  0.9152E+01  0.5185E-43
REACH   38     2000     4   0.6659E+02  0.3322E+01  0.5325E-43
REACH   39     2000     4   0.8468E+03  0.3992E+02  0.5465E-43
REACH   40     2000     4   0.8924E+02  0.4243E+01  0.5605E-43
REACH   41     2000     4   0.9498E+03  0.4505E+02  0.5745E-43
REACH   42     2000     4   0.8311E+02  0.4183E+01  0.5885E-43
REACH   43     2000     4   0.6887E+02  0.3256E+01  0.6026E-43
REACH   44     2000     4   0.1083E+04  0.5135E+02  0.6166E-43
REACH   45     2000     4   0.3193E+02  0.1514E+01  0.6306E-43
REACH   46     2000     4   0.1163E+04  0.5511E+02  0.6446E-43
REACH   47     2000     4   0.3257E+03  0.1621E+02  0.6586E-43
REACH   48     2000     4   0.3319E+02  0.1488E+01  0.6726E-43
REACH   49     2000     4   0.5702E+02  0.2688E+01  0.6866E-43
REACH   50     2000     4   0.1208E+04  0.5722E+02  0.7006E-43
REACH   51     2000     4   0.7000E+02  0.3147E+01  0.7147E-43
REACH   52     2000     4   0.3846E+03  0.1883E+02  0.7287E-43
REACH   53     2000     4   0.4831E+03  0.2325E+02  0.7427E-43
REACH   54     2000     4   0.4246E+04  0.2034E+03  0.7567E-43
REACH   55     2000     4   0.3064E+02  0.1402E+01  0.7707E-43
REACH   56     2000     4   0.1274E+04  0.6033E+02  0.7847E-43
REACH   57     2000     4   0.2057E+04  0.9778E+02  0.7987E-43
REACH   58     2000     4   0.7812E+03  0.3739E+02  0.8128E-43
REACH   59     2000     4   0.3367E+02  0.1515E+01  0.8268E-43
REACH   60     2000     4   0.3879E+02  0.1900E+01  0.8408E-43
REACH   61     2000     4   0.5714E+03  0.2720E+02  0.8548E-43
REACH   62     2000     4   0.7481E+03  0.3581E+02  0.8688E-43
REACH   63     2000     4   0.6197E+03  0.2953E+02  0.8828E-43
REACH   64     2000     4   0.4169E+04  0.1999E+03  0.8968E-43
REACH   65     2000     4   0.3903E+02  0.1695E+01  0.9108E-43
REACH   66     2000     4   0.4008E+04  0.1927E+03  0.9249E-43
REACH   67     2000     4   0.3960E+04  0.1906E+03  0.9389E-43
REACH   68     2000     4   0.4046E+04  0.1944E+03  0.9529E-43
REACH   69     2000     4   0.2071E+02  0.9243E+00  0.9669E-43
REACH   70     2000     4   0.4427E+02  0.2075E+01  0.9809E-43
REACH   71     2000     4   0.2069E+04  0.9838E+02  0.9949E-43
REACH   72     2000     4   0.3180E+02  0.1552E+01  0.1009E-42
REACH   73     2000     4   0.2120E+04  0.1008E+03  0.1023E-42
REACH   74     2000     4   0.3799E+04  0.1836E+03  0.1037E-42
REACH   75     2000     4   0.3013E+02  0.1414E+01  0.1051E-42
REACH   76     2000     4   0.2146E+04  0.1021E+03  0.1065E-42
REACH   77     2000     4   0.2522E+02  0.1249E+01  0.1079E-42
REACH   78     2000     4   0.5191E+02  0.2560E+01  0.1093E-42
REACH   79     2000     4   0.3323E+02  0.1430E+01  0.1107E-42
REACH   80     2000     4   0.2881E+02  0.1359E+01  0.1121E-42
REACH   81     2000     4   0.2183E+04  0.1038E+03  0.1135E-42
REACH   82     2000     4   0.2212E+04  0.1052E+03  0.1149E-42
REACH   83     2000     4   0.4726E+02  0.2109E+01  0.1163E-42
REACH   84     2000     4   0.1599E+03  0.7007E+01  0.1177E-42
REACH   85     2000     4   0.5833E+02  0.2611E+01  0.1191E-42
REACH   86     2000     4   0.2327E+04  0.1109E+03  0.1205E-42
REACH   87     2000     4   0.8494E+02  0.4183E+01  0.1219E-42
REACH   88     2000     4   0.2048E+02  0.1015E+01  0.1233E-42
REACH   89     2000     4   0.3798E+04  0.1836E+03  0.1247E-42
REACH   90     2000     4   0.5319E+02  0.2338E+01  0.1261E-42
REACH   91     2000     4   0.2474E+02  0.1287E+01  0.1275E-42
REACH   92     2000     4   0.5608E+02  0.2462E+01  0.1289E-42
REACH   93     2000     4   0.8423E+02  0.3702E+01  0.1303E-42
REACH   94     2000     4   0.3037E+02  0.1340E+01  0.1317E-42
REACH   95     2000     4   0.1498E+03  0.6571E+01  0.1331E-42
REACH   96     2000     4   0.2482E+04  0.1184E+03  0.1345E-42
REACH   97     2000     4   0.2402E+04  0.1143E+03  0.1359E-42
REACH   98     2000     4   0.3888E+02  0.1914E+01  0.1373E-42
REACH   99     2000     4   0.1053E+03  0.4710E+01  0.1387E-42
REACH  100     2000     4   0.2271E+02  0.9752E+00  0.1401E-42
REACH  101     2000     4   0.3582E+04  0.1732E+03  0.1415E-42
REACH  102     2000     4   0.2002E+02  0.9918E+00  0.1429E-42
REACH  103     2000     4   0.3692E+04  0.1785E+03  0.1443E-42
REACH  104     2000     4   0.3420E+04  0.1661E+03  0.1457E-42
REACH  105     2000     4   0.2033E+02  0.1062E+01  0.1471E-42
REACH  106     2000     4   0.3631E+04  0.1754E+03  0.1485E-42
REACH  107     2000     4   0.2536E+04  0.1212E+03  0.1499E-42
REACH  108     2000     4   0.6391E+02  0.3306E+01  0.1513E-42
REACH  109     2000     4   0.3877E+02  0.2004E+01  0.1527E-42
REACH  110     2000     4   0.7494E+02  0.3919E+01  0.1541E-42
REACH  111     2000     4   0.3370E+04  0.1636E+03  0.1555E-42
REACH  112     2000     4   0.2896E+04  0.1392E+03  0.1569E-42
REACH  113     2000     4   0.6641E+02  0.2940E+01  0.1583E-42
REACH  114     2000     4   0.2639E+04  0.1265E+03  0.1597E-42
REACH  115     2000     4   0.3289E+02  0.1700E+01  0.1611E-42
REACH  116     2000     4   0.2981E+02  0.1547E+01  0.1626E-42
REACH  117     2000     4   0.4442E+03  0.2291E+02  0.1640E-42
REACH  118     2000     4   0.2688E+04  0.1290E+03  0.1654E-42
REACH  119     2000     4   0.8247E+02  0.4136E+01  0.1668E-42
REACH  120     2000     4   0.2763E+04  0.1329E+03  0.1682E-42
REACH  121     2000     4   0.6670E+02  0.3473E+01  0.1696E-42
REACH  122     2000     4   0.2829E+04  0.1363E+03  0.1710E-42
REACH  123     2000     4   0.2424E+02  0.1241E+01  0.1724E-42
REACH  124     2000     4   0.3708E+03  0.1915E+02  0.1738E-42
REACH  125     2000     4   0.2659E+02  0.1365E+01  0.1752E-42
REACH  126     2000     4   0.6529E+02  0.3347E+01  0.1766E-42
REACH  127     2000     4   0.3280E+03  0.1697E+02  0.1780E-42
REACH  128     2000     4   0.8844E+02  0.4598E+01  0.1794E-42
REACH  129     2000     4   0.2608E+03  0.1351E+02  0.1808E-42
REACH  130     2000     4   0.1634E+03  0.8481E+01  0.1822E-42
REACH  131     2000     4   0.4010E+02  0.2066E+01  0.1836E-42
REACH  132     2000     4   0.7371E+02  0.3834E+01  0.1850E-42
REACH  133     2000     4   0.3998E+02  0.2068E+01  0.1864E-42
REACH    1     2000     5   0.4585E+02  0.2130E+01  0.1401E-44
REACH    2     2000     5   0.8619E+02  0.3966E+01  0.2803E-44
REACH    3     2000     5   0.2798E+02  0.1287E+01  0.4204E-44
REACH    4     2000     5   0.1567E+03  0.7255E+01  0.5605E-44
REACH    5     2000     5   0.2745E+02  0.1262E+01  0.7006E-44
REACH    6     2000     5   0.3813E+02  0.1740E+01  0.8408E-44
REACH    7     2000     5   0.6591E+02  0.3013E+01  0.9809E-44
REACH    8     2000     5   0.2116E+03  0.9818E+01  0.1121E-43
REACH    9     2000     5   0.2220E+02  0.1022E+01  0.1261E-43
REACH   10     2000     5   0.2910E+03  0.1346E+02  0.1401E-43
REACH   11     2000     5   0.2229E+02  0.1020E+01  0.1541E-43
REACH   12     2000     5   0.3278E+02  0.1504E+01  0.1682E-43
REACH   13     2000     5   0.3212E+03  0.1485E+02  0.1822E-43
REACH   14     2000     5   0.2269E+02  0.1066E+01  0.1962E-43
REACH   15     2000     5   0.3566E+03  0.1647E+02  0.2102E-43
REACH   16     2000     5   0.3793E+03  0.1753E+02  0.2242E-43
REACH   17     2000     5   0.1357E+03  0.5495E+01  0.2382E-43
REACH   18     2000     5   0.9057E+02  0.3734E+01  0.2522E-43
REACH   19     2000     5   0.4180E+02  0.1609E+01  0.2662E-43
REACH   20     2000     5   0.4584E+02  0.1697E+01  0.2803E-43
REACH   21     2000     5   0.4139E+02  0.1603E+01  0.2943E-43
REACH   22     2000     5   0.2514E+02  0.9768E+00  0.3083E-43
REACH   23     2000     5   0.7947E+02  0.3615E+01  0.3223E-43
REACH   24     2000     5   0.5399E+03  0.2423E+02  0.3363E-43
REACH   25     2000     5   0.2292E+02  0.8545E+00  0.3503E-43
REACH   26     2000     5   0.7101E+02  0.2755E+01  0.3643E-43
REACH   27     2000     5   0.6298E+03  0.2832E+02  0.3784E-43
REACH   28     2000     5   0.3009E+02  0.1388E+01  0.3924E-43
REACH   29     2000     5   0.7268E+03  0.3214E+02  0.4064E-43
REACH   30     2000     5   0.4343E+02  0.1711E+01  0.4204E-43
REACH   31     2000     5   0.1261E+03  0.4834E+01  0.4344E-43
REACH   32     2000     5   0.3299E+02  0.1546E+01  0.4484E-43
REACH   33     2000     5   0.3851E+02  0.1725E+01  0.4624E-43
REACH   34     2000     5   0.7461E+02  0.3372E+01  0.4764E-43
REACH   35     2000     5   0.7673E+03  0.3395E+02  0.4905E-43
REACH   36     2000     5   0.8628E+02  0.3410E+01  0.5045E-43
REACH   37     2000     5   0.1832E+03  0.7068E+01  0.5185E-43
REACH   38     2000     5   0.6659E+02  0.2617E+01  0.5325E-43
REACH   39     2000     5   0.8468E+03  0.3753E+02  0.5465E-43
REACH   40     2000     5   0.8924E+02  0.4125E+01  0.5605E-43
REACH   41     2000     5   0.9498E+03  0.4168E+02  0.5745E-43
REACH   42     2000     5   0.8311E+02  0.3231E+01  0.5885E-43
REACH   43     2000     5   0.6887E+02  0.3111E+01  0.6026E-43
REACH   44     2000     5   0.1083E+04  0.4786E+02  0.6166E-43
REACH   45     2000     5   0.3193E+02  0.1519E+01  0.6306E-43
REACH   46     2000     5   0.1163E+04  0.5145E+02  0.6446E-43
REACH   47     2000     5   0.3257E+03  0.1267E+02  0.6586E-43
REACH   48     2000     5   0.3319E+02  0.1549E+01  0.6726E-43
REACH   49     2000     5   0.5702E+02  0.2619E+01  0.6866E-43
REACH   50     2000     5   0.1208E+04  0.5356E+02  0.7006E-43
REACH   51     2000     5   0.7000E+02  0.3250E+01  0.7147E-43
REACH   52     2000     5   0.3846E+03  0.1536E+02  0.7287E-43
REACH   53     2000     5   0.4831E+03  0.1990E+02  0.7427E-43
REACH   54     2000     5   0.4246E+04  0.1860E+03  0.7567E-43
REACH   55     2000     5   0.3064E+02  0.1757E+01  0.7707E-43
REACH   56     2000     5   0.1274E+04  0.5657E+02  0.7847E-43
REACH   57     2000     5   0.2057E+04  0.8864E+02  0.7987E-43
REACH   58     2000     5   0.7812E+03  0.3203E+02  0.8128E-43
REACH   59     2000     5   0.3367E+02  0.1567E+01  0.8268E-43
REACH   60     2000     5   0.3879E+02  0.1523E+01  0.8408E-43
REACH   61     2000     5   0.5714E+03  0.2394E+02  0.8548E-43
REACH   62     2000     5   0.7481E+03  0.3081E+02  0.8688E-43
REACH   63     2000     5   0.6197E+03  0.2580E+02  0.8828E-43
REACH   64     2000     5   0.4169E+04  0.1817E+03  0.8968E-43
REACH   65     2000     5   0.3903E+02  0.2210E+01  0.9108E-43
REACH   66     2000     5   0.4008E+04  0.1726E+03  0.9249E-43
REACH   67     2000     5   0.3960E+04  0.1699E+03  0.9389E-43
REACH   68     2000     5   0.4046E+04  0.1748E+03  0.9529E-43
REACH   69     2000     5   0.2071E+02  0.1179E+01  0.9669E-43
REACH   70     2000     5   0.4427E+02  0.2063E+01  0.9809E-43
REACH   71     2000     5   0.2069E+04  0.8913E+02  0.9949E-43
REACH   72     2000     5   0.3180E+02  0.1230E+01  0.1009E-42
REACH   73     2000     5   0.2120E+04  0.9140E+02  0.1023E-42
REACH   74     2000     5   0.3799E+04  0.1611E+03  0.1037E-42
REACH   75     2000     5   0.3013E+02  0.1407E+01  0.1051E-42
REACH   76     2000     5   0.2146E+04  0.9243E+02  0.1065E-42
REACH   77     2000     5   0.2522E+02  0.9765E+00  0.1079E-42
REACH   78     2000     5   0.5191E+02  0.2015E+01  0.1093E-42
REACH   79     2000     5   0.3323E+02  0.1866E+01  0.1107E-42
REACH   80     2000     5   0.2881E+02  0.1301E+01  0.1121E-42
REACH   81     2000     5   0.2183E+04  0.9407E+02  0.1135E-42
REACH   82     2000     5   0.2212E+04  0.9538E+02  0.1149E-42
REACH   83     2000     5   0.4726E+02  0.2559E+01  0.1163E-42
REACH   84     2000     5   0.1599E+03  0.8860E+01  0.1177E-42
REACH   85     2000     5   0.5833E+02  0.2997E+01  0.1191E-42
REACH   86     2000     5   0.2327E+04  0.9988E+02  0.1205E-42
REACH   87     2000     5   0.8494E+02  0.3340E+01  0.1219E-42
REACH   88     2000     5   0.2048E+02  0.8011E+00  0.1233E-42
REACH   89     2000     5   0.3798E+04  0.1611E+03  0.1247E-42
REACH   90     2000     5   0.5319E+02  0.2795E+01  0.1261E-42
REACH   91     2000     5   0.2474E+02  0.9240E+00  0.1275E-42
REACH   92     2000     5   0.5608E+02  0.3027E+01  0.1289E-42
REACH   93     2000     5   0.8423E+02  0.4435E+01  0.1303E-42
REACH   94     2000     5   0.3037E+02  0.1613E+01  0.1317E-42
REACH   95     2000     5   0.1498E+03  0.7965E+01  0.1331E-42
REACH   96     2000     5   0.2482E+04  0.1064E+03  0.1345E-42
REACH   97     2000     5   0.2402E+04  0.1035E+03  0.1359E-42
REACH   98     2000     5   0.3888E+02  0.1532E+01  0.1373E-42
REACH   99     2000     5   0.1053E+03  0.5938E+01  0.1387E-42
REACH  100     2000     5   0.2271E+02  0.1202E+01  0.1401E-42
REACH  101     2000     5   0.3582E+04  0.1510E+03  0.1415E-42
REACH  102     2000     5   0.2002E+02  0.9075E+00  0.1429E-42
REACH  103     2000     5   0.3692E+04  0.1561E+03  0.1443E-42
REACH  104     2000     5   0.3420E+04  0.1424E+03  0.1457E-42
REACH  105     2000     5   0.2033E+02  0.7817E+00  0.1471E-42
REACH  106     2000     5   0.3631E+04  0.1533E+03  0.1485E-42
REACH  107     2000     5   0.2536E+04  0.1085E+03  0.1499E-42
REACH  108     2000     5   0.6391E+02  0.2382E+01  0.1513E-42
REACH  109     2000     5   0.3877E+02  0.1458E+01  0.1527E-42
REACH  110     2000     5   0.7494E+02  0.2811E+01  0.1541E-42
REACH  111     2000     5   0.3370E+04  0.1404E+03  0.1555E-42
REACH  112     2000     5   0.2896E+04  0.1227E+03  0.1569E-42
REACH  113     2000     5   0.6641E+02  0.3423E+01  0.1583E-42
REACH  114     2000     5   0.2639E+04  0.1123E+03  0.1597E-42
REACH  115     2000     5   0.3289E+02  0.1232E+01  0.1611E-42
REACH  116     2000     5   0.2981E+02  0.1107E+01  0.1626E-42
REACH  117     2000     5   0.4442E+03  0.1646E+02  0.1640E-42
REACH  118     2000     5   0.2688E+04  0.1141E+03  0.1654E-42
REACH  119     2000     5   0.8247E+02  0.3799E+01  0.1668E-42
REACH  120     2000     5   0.2763E+04  0.1168E+03  0.1682E-42
REACH  121     2000     5   0.6670E+02  0.2501E+01  0.1696E-42
REACH  122     2000     5   0.2829E+04  0.1194E+03  0.1710E-42
REACH  123     2000     5   0.2424E+02  0.9357E+00  0.1724E-42
REACH  124     2000     5   0.3708E+03  0.1364E+02  0.1738E-42
REACH  125     2000     5   0.2659E+02  0.1028E+01  0.1752E-42
REACH  126     2000     5   0.6529E+02  0.2526E+01  0.1766E-42
REACH  127     2000     5   0.3280E+03  0.1200E+02  0.1780E-42
REACH  128     2000     5   0.8844E+02  0.3184E+01  0.1794E-42
REACH  129     2000     5   0.2608E+03  0.9442E+01  0.1808E-42
REACH  130     2000     5   0.1634E+03  0.5879E+01  0.1822E-42
REACH  131     2000     5   0.4010E+02  0.1534E+01  0.1836E-42
REACH  132     2000     5   0.7371E+02  0.2674E+01  0.1850E-42
REACH  133     2000     5   0.3998E+02  0.1441E+01  0.1864E-42
REACH    1     2000     6   0.4585E+02  0.4743E+01  0.1401E-44
REACH    2     2000     6   0.8619E+02  0.8823E+01  0.2803E-44
REACH    3     2000     6   0.2798E+02  0.2896E+01  0.4204E-44
REACH    4     2000     6   0.1567E+03  0.1610E+02  0.5605E-44
REACH    5     2000     6   0.2745E+02  0.2630E+01  0.7006E-44
REACH    6     2000     6   0.3813E+02  0.3947E+01  0.8408E-44
REACH    7     2000     6   0.6591E+02  0.6606E+01  0.9809E-44
REACH    8     2000     6   0.2116E+03  0.2177E+02  0.1121E-43
REACH    9     2000     6   0.2220E+02  0.2149E+01  0.1261E-43
REACH   10     2000     6   0.2910E+03  0.2966E+02  0.1401E-43
REACH   11     2000     6   0.2229E+02  0.2267E+01  0.1541E-43
REACH   12     2000     6   0.3278E+02  0.3149E+01  0.1682E-43
REACH   13     2000     6   0.3212E+03  0.3257E+02  0.1822E-43
REACH   14     2000     6   0.2269E+02  0.2169E+01  0.1962E-43
REACH   15     2000     6   0.3566E+03  0.3596E+02  0.2102E-43
REACH   16     2000     6   0.3793E+03  0.3813E+02  0.2242E-43
REACH   17     2000     6   0.1357E+03  0.1313E+02  0.2382E-43
REACH   18     2000     6   0.9057E+02  0.8822E+01  0.2522E-43
REACH   19     2000     6   0.4180E+02  0.3990E+01  0.2662E-43
REACH   20     2000     6   0.4584E+02  0.4416E+01  0.2803E-43
REACH   21     2000     6   0.4139E+02  0.3917E+01  0.2943E-43
REACH   22     2000     6   0.2514E+02  0.2398E+01  0.3083E-43
REACH   23     2000     6   0.7947E+02  0.7594E+01  0.3223E-43
REACH   24     2000     6   0.5399E+03  0.5364E+02  0.3363E-43
REACH   25     2000     6   0.2292E+02  0.2234E+01  0.3503E-43
REACH   26     2000     6   0.7101E+02  0.6737E+01  0.3643E-43
REACH   27     2000     6   0.6298E+03  0.6218E+02  0.3784E-43
REACH   28     2000     6   0.3009E+02  0.2817E+01  0.3924E-43
REACH   29     2000     6   0.7268E+03  0.7146E+02  0.4064E-43
REACH   30     2000     6   0.4343E+02  0.4158E+01  0.4204E-43
REACH   31     2000     6   0.1261E+03  0.1207E+02  0.4344E-43
REACH   32     2000     6   0.3299E+02  0.3108E+01  0.4484E-43
REACH   33     2000     6   0.3851E+02  0.3664E+01  0.4624E-43
REACH   34     2000     6   0.7461E+02  0.7129E+01  0.4764E-43
REACH   35     2000     6   0.7673E+03  0.7527E+02  0.4905E-43
REACH   36     2000     6   0.8628E+02  0.8274E+01  0.5045E-43
REACH   37     2000     6   0.1832E+03  0.1755E+02  0.5185E-43
REACH   38     2000     6   0.6659E+02  0.6367E+01  0.5325E-43
REACH   39     2000     6   0.8468E+03  0.8284E+02  0.5465E-43
REACH   40     2000     6   0.8924E+02  0.8465E+01  0.5605E-43
REACH   41     2000     6   0.9498E+03  0.9270E+02  0.5745E-43
REACH   42     2000     6   0.8311E+02  0.7966E+01  0.5885E-43
REACH   43     2000     6   0.6887E+02  0.6508E+01  0.6026E-43
REACH   44     2000     6   0.1083E+04  0.1053E+03  0.6166E-43
REACH   45     2000     6   0.3193E+02  0.3030E+01  0.6306E-43
REACH   46     2000     6   0.1163E+04  0.1128E+03  0.6446E-43
REACH   47     2000     6   0.3257E+03  0.3106E+02  0.6586E-43
REACH   48     2000     6   0.3319E+02  0.3348E+01  0.6726E-43
REACH   49     2000     6   0.5702E+02  0.5349E+01  0.6866E-43
REACH   50     2000     6   0.1208E+04  0.1170E+03  0.7006E-43
REACH   51     2000     6   0.7000E+02  0.7099E+01  0.7147E-43
REACH   52     2000     6   0.3846E+03  0.3700E+02  0.7287E-43
REACH   53     2000     6   0.4831E+03  0.4698E+02  0.7427E-43
REACH   54     2000     6   0.4246E+04  0.3922E+03  0.7567E-43
REACH   55     2000     6   0.3064E+02  0.3196E+01  0.7707E-43
REACH   56     2000     6   0.1274E+04  0.1232E+03  0.7847E-43
REACH   57     2000     6   0.2057E+04  0.1987E+03  0.7987E-43
REACH   58     2000     6   0.7812E+03  0.7534E+02  0.8128E-43
REACH   59     2000     6   0.3367E+02  0.3430E+01  0.8268E-43
REACH   60     2000     6   0.3879E+02  0.3596E+01  0.8408E-43
REACH   61     2000     6   0.5714E+03  0.5594E+02  0.8548E-43
REACH   62     2000     6   0.7481E+03  0.7232E+02  0.8688E-43
REACH   63     2000     6   0.6197E+03  0.6037E+02  0.8828E-43
REACH   64     2000     6   0.4169E+04  0.3843E+03  0.8968E-43
REACH   65     2000     6   0.3903E+02  0.3777E+01  0.9108E-43
REACH   66     2000     6   0.4008E+04  0.3682E+03  0.9249E-43
REACH   67     2000     6   0.3960E+04  0.3635E+03  0.9389E-43
REACH   68     2000     6   0.4046E+04  0.3720E+03  0.9529E-43
REACH   69     2000     6   0.2071E+02  0.2068E+01  0.9669E-43
REACH   70     2000     6   0.4427E+02  0.4155E+01  0.9809E-43
REACH   71     2000     6   0.2069E+04  0.1998E+03  0.9949E-43
REACH   72     2000     6   0.3180E+02  0.2957E+01  0.1009E-42
REACH   73     2000     6   0.2120E+04  0.2046E+03  0.1023E-42
REACH   74     2000     6   0.3799E+04  0.3483E+03  0.1037E-42
REACH   75     2000     6   0.3013E+02  0.2814E+01  0.1051E-42
REACH   76     2000     6   0.2146E+04  0.2071E+03  0.1065E-42
REACH   77     2000     6   0.2522E+02  0.2373E+01  0.1079E-42
REACH   78     2000     6   0.5191E+02  0.4856E+01  0.1093E-42
REACH   79     2000     6   0.3323E+02  0.3156E+01  0.1107E-42
REACH   80     2000     6   0.2881E+02  0.2695E+01  0.1121E-42
REACH   81     2000     6   0.2183E+04  0.2105E+03  0.1135E-42
REACH   82     2000     6   0.2212E+04  0.2132E+03  0.1149E-42
REACH   83     2000     6   0.4726E+02  0.4380E+01  0.1163E-42
REACH   84     2000     6   0.1599E+03  0.1518E+02  0.1177E-42
REACH   85     2000     6   0.5833E+02  0.5393E+01  0.1191E-42
REACH   86     2000     6   0.2327E+04  0.2241E+03  0.1205E-42
REACH   87     2000     6   0.8494E+02  0.7997E+01  0.1219E-42
REACH   88     2000     6   0.2048E+02  0.1933E+01  0.1233E-42
REACH   89     2000     6   0.3798E+04  0.3483E+03  0.1247E-42
REACH   90     2000     6   0.5319E+02  0.4806E+01  0.1261E-42
REACH   91     2000     6   0.2474E+02  0.2007E+01  0.1275E-42
REACH   92     2000     6   0.5608E+02  0.5078E+01  0.1289E-42
REACH   93     2000     6   0.8423E+02  0.7640E+01  0.1303E-42
REACH   94     2000     6   0.3037E+02  0.2782E+01  0.1317E-42
REACH   95     2000     6   0.1498E+03  0.1355E+02  0.1331E-42
REACH   96     2000     6   0.2482E+04  0.2373E+03  0.1345E-42
REACH   97     2000     6   0.2402E+04  0.2308E+03  0.1359E-42
REACH   98     2000     6   0.3888E+02  0.3658E+01  0.1373E-42
REACH   99     2000     6   0.1053E+03  0.1055E+02  0.1387E-42
REACH  100     2000     6   0.2271E+02  0.1988E+01  0.1401E-42
REACH  101     2000     6   0.3582E+04  0.3284E+03  0.1415E-42
REACH  102     2000     6   0.2002E+02  0.1846E+01  0.1429E-42
REACH  103     2000     6   0.3692E+04  0.3384E+03  0.1443E-42
REACH  104     2000     6   0.3420E+04  0.3138E+03  0.1457E-42
REACH  105     2000     6   0.2033E+02  0.1658E+01  0.1471E-42
REACH  106     2000     6   0.3631E+04  0.3327E+03  0.1485E-42
REACH  107     2000     6   0.2536E+04  0.2416E+03  0.1499E-42
REACH  108     2000     6   0.6391E+02  0.5168E+01  0.1513E-42
REACH  109     2000     6   0.3877E+02  0.3130E+01  0.1527E-42
REACH  110     2000     6   0.7494E+02  0.6184E+01  0.1541E-42
REACH  111     2000     6   0.3370E+04  0.3095E+03  0.1555E-42
REACH  112     2000     6   0.2896E+04  0.2712E+03  0.1569E-42
REACH  113     2000     6   0.6641E+02  0.6079E+01  0.1583E-42
REACH  114     2000     6   0.2639E+04  0.2499E+03  0.1597E-42
REACH  115     2000     6   0.3289E+02  0.2660E+01  0.1611E-42
REACH  116     2000     6   0.2981E+02  0.2417E+01  0.1626E-42
REACH  117     2000     6   0.4442E+03  0.3584E+02  0.1640E-42
REACH  118     2000     6   0.2688E+04  0.2538E+03  0.1654E-42
REACH  119     2000     6   0.8247E+02  0.7740E+01  0.1668E-42
REACH  120     2000     6   0.2763E+04  0.2599E+03  0.1682E-42
REACH  121     2000     6   0.6670E+02  0.5429E+01  0.1696E-42
REACH  122     2000     6   0.2829E+04  0.2652E+03  0.1710E-42
REACH  123     2000     6   0.2424E+02  0.1953E+01  0.1724E-42
REACH  124     2000     6   0.3708E+03  0.2994E+02  0.1738E-42
REACH  125     2000     6   0.2659E+02  0.2151E+01  0.1752E-42
REACH  126     2000     6   0.6529E+02  0.5267E+01  0.1766E-42
REACH  127     2000     6   0.3280E+03  0.2650E+02  0.1780E-42
REACH  128     2000     6   0.8844E+02  0.7151E+01  0.1794E-42
REACH  129     2000     6   0.2608E+03  0.2107E+02  0.1808E-42
REACH  130     2000     6   0.1634E+03  0.1320E+02  0.1822E-42
REACH  131     2000     6   0.4010E+02  0.3247E+01  0.1836E-42
REACH  132     2000     6   0.7371E+02  0.5971E+01  0.1850E-42
REACH  133     2000     6   0.3998E+02  0.3240E+01  0.1864E-42
REACH    1     2000     7   0.4585E+02  0.2004E+01  0.1401E-44
REACH    2     2000     7   0.8619E+02  0.3690E+01  0.2803E-44
REACH    3     2000     7   0.2798E+02  0.1233E+01  0.4204E-44
REACH    4     2000     7   0.1567E+03  0.6731E+01  0.5605E-44
REACH    5     2000     7   0.2745E+02  0.9161E+00  0.7006E-44
REACH    6     2000     7   0.3813E+02  0.1683E+01  0.8408E-44
REACH    7     2000     7   0.6591E+02  0.2606E+01  0.9809E-44
REACH    8     2000     7   0.2116E+03  0.9114E+01  0.1121E-43
REACH    9     2000     7   0.2220E+02  0.7187E+00  0.1261E-43
REACH   10     2000     7   0.2910E+03  0.1213E+02  0.1401E-43
REACH   11     2000     7   0.2229E+02  0.9812E+00  0.1541E-43
REACH   12     2000     7   0.3278E+02  0.1089E+01  0.1682E-43
REACH   13     2000     7   0.3212E+03  0.1308E+02  0.1822E-43
REACH   14     2000     7   0.2269E+02  0.6898E+00  0.1962E-43
REACH   15     2000     7   0.3566E+03  0.1423E+02  0.2102E-43
REACH   16     2000     7   0.3793E+03  0.1491E+02  0.2242E-43
REACH   17     2000     7   0.1357E+03  0.4544E+01  0.2382E-43
REACH   18     2000     7   0.9057E+02  0.3151E+01  0.2522E-43
REACH   19     2000     7   0.4180E+02  0.1321E+01  0.2662E-43
REACH   20     2000     7   0.4584E+02  0.1435E+01  0.2803E-43
REACH   21     2000     7   0.4139E+02  0.1259E+01  0.2943E-43
REACH   22     2000     7   0.2514E+02  0.7862E+00  0.3083E-43
REACH   23     2000     7   0.7947E+02  0.2423E+01  0.3223E-43
REACH   24     2000     7   0.5399E+03  0.2015E+02  0.3363E-43
REACH   25     2000     7   0.2292E+02  0.6699E+00  0.3503E-43
REACH   26     2000     7   0.7101E+02  0.2180E+01  0.3643E-43
REACH   27     2000     7   0.6298E+03  0.2283E+02  0.3784E-43
REACH   28     2000     7   0.3009E+02  0.9157E+00  0.3924E-43
REACH   29     2000     7   0.7268E+03  0.2568E+02  0.4064E-43
REACH   30     2000     7   0.4343E+02  0.1294E+01  0.4204E-43
REACH   31     2000     7   0.1261E+03  0.3816E+01  0.4344E-43
REACH   32     2000     7   0.3299E+02  0.9432E+00  0.4484E-43
REACH   33     2000     7   0.3851E+02  0.1148E+01  0.4624E-43
REACH   34     2000     7   0.7461E+02  0.2171E+01  0.4764E-43
REACH   35     2000     7   0.7673E+03  0.2687E+02  0.4905E-43
REACH   36     2000     7   0.8628E+02  0.2600E+01  0.5045E-43
REACH   37     2000     7   0.1832E+03  0.5507E+01  0.5185E-43
REACH   38     2000     7   0.6659E+02  0.1975E+01  0.5325E-43
REACH   39     2000     7   0.8468E+03  0.2913E+02  0.5465E-43
REACH   40     2000     7   0.8924E+02  0.2542E+01  0.5605E-43
REACH   41     2000     7   0.9498E+03  0.3202E+02  0.5745E-43
REACH   42     2000     7   0.8311E+02  0.2383E+01  0.5885E-43
REACH   43     2000     7   0.6887E+02  0.2102E+01  0.6026E-43
REACH   44     2000     7   0.1083E+04  0.3583E+02  0.6166E-43
REACH   45     2000     7   0.3193E+02  0.9165E+00  0.6306E-43
REACH   46     2000     7   0.1163E+04  0.3820E+02  0.6446E-43
REACH   47     2000     7   0.3257E+03  0.9822E+01  0.6586E-43
REACH   48     2000     7   0.3319E+02  0.1406E+01  0.6726E-43
REACH   49     2000     7   0.5702E+02  0.1759E+01  0.6866E-43
REACH   50     2000     7   0.1208E+04  0.3950E+02  0.7006E-43
REACH   51     2000     7   0.7000E+02  0.2946E+01  0.7147E-43
REACH   52     2000     7   0.3846E+03  0.1226E+02  0.7287E-43
REACH   53     2000     7   0.4831E+03  0.1640E+02  0.7427E-43
REACH   54     2000     7   0.4246E+04  0.1215E+03  0.7567E-43
REACH   55     2000     7   0.3064E+02  0.7498E+00  0.7707E-43
REACH   56     2000     7   0.1274E+04  0.4155E+02  0.7847E-43
REACH   57     2000     7   0.2057E+04  0.6788E+02  0.7987E-43
REACH   58     2000     7   0.7812E+03  0.2632E+02  0.8128E-43
REACH   59     2000     7   0.3367E+02  0.1407E+01  0.8268E-43
REACH   60     2000     7   0.3879E+02  0.1208E+01  0.8408E-43
REACH   61     2000     7   0.5714E+03  0.2003E+02  0.8548E-43
REACH   62     2000     7   0.7481E+03  0.2536E+02  0.8688E-43
REACH   63     2000     7   0.6197E+03  0.2144E+02  0.8828E-43
REACH   64     2000     7   0.4169E+04  0.1199E+03  0.8968E-43
REACH   65     2000     7   0.3903E+02  0.1002E+01  0.9108E-43
REACH   66     2000     7   0.4008E+04  0.1162E+03  0.9249E-43
REACH   67     2000     7   0.3960E+04  0.1150E+03  0.9389E-43
REACH   68     2000     7   0.4046E+04  0.1171E+03  0.9529E-43
REACH   69     2000     7   0.2071E+02  0.4734E+00  0.9669E-43
REACH   70     2000     7   0.4427E+02  0.1301E+01  0.9809E-43
REACH   71     2000     7   0.2069E+04  0.6820E+02  0.9949E-43
REACH   72     2000     7   0.3180E+02  0.9997E+00  0.1009E-42
REACH   73     2000     7   0.2120E+04  0.6959E+02  0.1023E-42
REACH   74     2000     7   0.3799E+04  0.1108E+03  0.1037E-42
REACH   75     2000     7   0.3013E+02  0.9026E+00  0.1051E-42
REACH   76     2000     7   0.2146E+04  0.7035E+02  0.1065E-42
REACH   77     2000     7   0.2522E+02  0.7486E+00  0.1079E-42
REACH   78     2000     7   0.5191E+02  0.1614E+01  0.1093E-42
REACH   79     2000     7   0.3323E+02  0.9303E+00  0.1107E-42
REACH   80     2000     7   0.2881E+02  0.8139E+00  0.1121E-42
REACH   81     2000     7   0.2183E+04  0.7139E+02  0.1135E-42
REACH   82     2000     7   0.2212E+04  0.7220E+02  0.1149E-42
REACH   83     2000     7   0.4726E+02  0.1191E+01  0.1163E-42
REACH   84     2000     7   0.1599E+03  0.4229E+01  0.1177E-42
REACH   85     2000     7   0.5833E+02  0.1627E+01  0.1191E-42
REACH   86     2000     7   0.2327E+04  0.7557E+02  0.1205E-42
REACH   87     2000     7   0.8494E+02  0.2511E+01  0.1219E-42
REACH   88     2000     7   0.2048E+02  0.6214E+00  0.1233E-42
REACH   89     2000     7   0.3798E+04  0.1109E+03  0.1247E-42
REACH   90     2000     7   0.5319E+02  0.1532E+01  0.1261E-42
REACH   91     2000     7   0.2474E+02  0.6067E+00  0.1275E-42
REACH   92     2000     7   0.5608E+02  0.1558E+01  0.1289E-42
REACH   93     2000     7   0.8423E+02  0.2334E+01  0.1303E-42
REACH   94     2000     7   0.3037E+02  0.7969E+00  0.1317E-42
REACH   95     2000     7   0.1498E+03  0.4149E+01  0.1331E-42
REACH   96     2000     7   0.2482E+04  0.7938E+02  0.1345E-42
REACH   97     2000     7   0.2402E+04  0.7751E+02  0.1359E-42
REACH   98     2000     7   0.3888E+02  0.1147E+01  0.1373E-42
REACH   99     2000     7   0.1053E+03  0.2501E+01  0.1387E-42
REACH  100     2000     7   0.2271E+02  0.6678E+00  0.1401E-42
REACH  101     2000     7   0.3582E+04  0.1057E+03  0.1415E-42
REACH  102     2000     7   0.2002E+02  0.5135E+00  0.1429E-42
REACH  103     2000     7   0.3692E+04  0.1084E+03  0.1443E-42
REACH  104     2000     7   0.3420E+04  0.1013E+03  0.1457E-42
REACH  105     2000     7   0.2033E+02  0.4446E+00  0.1471E-42
REACH  106     2000     7   0.3631E+04  0.1070E+03  0.1485E-42
REACH  107     2000     7   0.2536E+04  0.8066E+02  0.1499E-42
REACH  108     2000     7   0.6391E+02  0.1528E+01  0.1513E-42
REACH  109     2000     7   0.3877E+02  0.9270E+00  0.1527E-42
REACH  110     2000     7   0.7494E+02  0.1825E+01  0.1541E-42
REACH  111     2000     7   0.3370E+04  0.1002E+03  0.1555E-42
REACH  112     2000     7   0.2896E+04  0.8899E+02  0.1569E-42
REACH  113     2000     7   0.6641E+02  0.1861E+01  0.1583E-42
REACH  114     2000     7   0.2639E+04  0.8296E+02  0.1597E-42
REACH  115     2000     7   0.3289E+02  0.7964E+00  0.1611E-42
REACH  116     2000     7   0.2981E+02  0.7074E+00  0.1626E-42
REACH  117     2000     7   0.4442E+03  0.1050E+02  0.1640E-42
REACH  118     2000     7   0.2688E+04  0.8403E+02  0.1654E-42
REACH  119     2000     7   0.8247E+02  0.2035E+01  0.1668E-42
REACH  120     2000     7   0.2763E+04  0.8573E+02  0.1682E-42
REACH  121     2000     7   0.6670E+02  0.1573E+01  0.1696E-42
REACH  122     2000     7   0.2829E+04  0.8723E+02  0.1710E-42
REACH  123     2000     7   0.2424E+02  0.5891E+00  0.1724E-42
REACH  124     2000     7   0.3708E+03  0.8806E+01  0.1738E-42
REACH  125     2000     7   0.2659E+02  0.6331E+00  0.1752E-42
REACH  126     2000     7   0.6529E+02  0.1558E+01  0.1766E-42
REACH  127     2000     7   0.3280E+03  0.7832E+01  0.1780E-42
REACH  128     2000     7   0.8844E+02  0.2206E+01  0.1794E-42
REACH  129     2000     7   0.2608E+03  0.6292E+01  0.1808E-42
REACH  130     2000     7   0.1634E+03  0.3994E+01  0.1822E-42
REACH  131     2000     7   0.4010E+02  0.9548E+00  0.1836E-42
REACH  132     2000     7   0.7371E+02  0.1793E+01  0.1850E-42
REACH  133     2000     7   0.3998E+02  0.9351E+00  0.1864E-42
REACH    1     2000     8   0.4585E+02  0.2024E+01  0.1401E-44
REACH    2     2000     8   0.8619E+02  0.3714E+01  0.2803E-44
REACH    3     2000     8   0.2798E+02  0.1265E+01  0.4204E-44
REACH    4     2000     8   0.1567E+03  0.6789E+01  0.5605E-44
REACH    5     2000     8   0.2745E+02  0.8347E+00  0.7006E-44
REACH    6     2000     8   0.3813E+02  0.1735E+01  0.8408E-44
REACH    7     2000     8   0.6591E+02  0.2577E+01  0.9809E-44
REACH    8     2000     8   0.2116E+03  0.9206E+01  0.1121E-43
REACH    9     2000     8   0.2220E+02  0.6755E+00  0.1261E-43
REACH   10     2000     8   0.2910E+03  0.1216E+02  0.1401E-43
REACH   11     2000     8   0.2229E+02  0.1002E+01  0.1541E-43
REACH   12     2000     8   0.3278E+02  0.9834E+00  0.1682E-43
REACH   13     2000     8   0.3212E+03  0.1305E+02  0.1822E-43
REACH   14     2000     8   0.2269E+02  0.6055E+00  0.1962E-43
REACH   15     2000     8   0.3566E+03  0.1408E+02  0.2102E-43
REACH   16     2000     8   0.3793E+03  0.1468E+02  0.2242E-43
REACH   17     2000     8   0.1357E+03  0.4416E+01  0.2382E-43
REACH   18     2000     8   0.9057E+02  0.3109E+01  0.2522E-43
REACH   19     2000     8   0.4180E+02  0.1244E+01  0.2662E-43
REACH   20     2000     8   0.4584E+02  0.1415E+01  0.2803E-43
REACH   21     2000     8   0.4139E+02  0.1176E+01  0.2943E-43
REACH   22     2000     8   0.2514E+02  0.7342E+00  0.3083E-43
REACH   23     2000     8   0.7947E+02  0.2160E+01  0.3223E-43
REACH   24     2000     8   0.5399E+03  0.1970E+02  0.3363E-43
REACH   25     2000     8   0.2292E+02  0.6834E+00  0.3503E-43
REACH   26     2000     8   0.7101E+02  0.2034E+01  0.3643E-43
REACH   27     2000     8   0.6298E+03  0.2208E+02  0.3784E-43
REACH   28     2000     8   0.3009E+02  0.7824E+00  0.3924E-43
REACH   29     2000     8   0.7268E+03  0.2476E+02  0.4064E-43
REACH   30     2000     8   0.4343E+02  0.1247E+01  0.4204E-43
REACH   31     2000     8   0.1261E+03  0.3661E+01  0.4344E-43
REACH   32     2000     8   0.3299E+02  0.8145E+00  0.4484E-43
REACH   33     2000     8   0.3851E+02  0.1015E+01  0.4624E-43
REACH   34     2000     8   0.7461E+02  0.1875E+01  0.4764E-43
REACH   35     2000     8   0.7673E+03  0.2581E+02  0.4905E-43
REACH   36     2000     8   0.8628E+02  0.2444E+01  0.5045E-43
REACH   37     2000     8   0.1832E+03  0.5294E+01  0.5185E-43
REACH   38     2000     8   0.6659E+02  0.1885E+01  0.5325E-43
REACH   39     2000     8   0.8468E+03  0.2778E+02  0.5465E-43
REACH   40     2000     8   0.8924E+02  0.2248E+01  0.5605E-43
REACH   41     2000     8   0.9498E+03  0.3055E+02  0.5745E-43
REACH   42     2000     8   0.8311E+02  0.2328E+01  0.5885E-43
REACH   43     2000     8   0.6887E+02  0.1849E+01  0.6026E-43
REACH   44     2000     8   0.1083E+04  0.3388E+02  0.6166E-43
REACH   45     2000     8   0.3193E+02  0.7733E+00  0.6306E-43
REACH   46     2000     8   0.1163E+04  0.3595E+02  0.6446E-43
REACH   47     2000     8   0.3257E+03  0.9354E+01  0.6586E-43
REACH   48     2000     8   0.3319E+02  0.1367E+01  0.6726E-43
REACH   49     2000     8   0.5702E+02  0.1482E+01  0.6866E-43
REACH   50     2000     8   0.1208E+04  0.3705E+02  0.7006E-43
REACH   51     2000     8   0.7000E+02  0.2886E+01  0.7147E-43
REACH   52     2000     8   0.3846E+03  0.1177E+02  0.7287E-43
REACH   53     2000     8   0.4831E+03  0.1584E+02  0.7427E-43
REACH   54     2000     8   0.4246E+04  0.1112E+03  0.7567E-43
REACH   55     2000     8   0.3064E+02  0.1284E+01  0.7707E-43
REACH   56     2000     8   0.1274E+04  0.3879E+02  0.7847E-43
REACH   57     2000     8   0.2057E+04  0.6408E+02  0.7987E-43
REACH   58     2000     8   0.7812E+03  0.2528E+02  0.8128E-43
REACH   59     2000     8   0.3367E+02  0.1394E+01  0.8268E-43
REACH   60     2000     8   0.3879E+02  0.1098E+01  0.8408E-43
REACH   61     2000     8   0.5714E+03  0.1947E+02  0.8548E-43
REACH   62     2000     8   0.7481E+03  0.2438E+02  0.8688E-43
REACH   63     2000     8   0.6197E+03  0.2076E+02  0.8828E-43
REACH   64     2000     8   0.4169E+04  0.1082E+03  0.8968E-43
REACH   65     2000     8   0.3903E+02  0.1449E+01  0.9108E-43
REACH   66     2000     8   0.4008E+04  0.1023E+03  0.9249E-43
REACH   67     2000     8   0.3960E+04  0.1005E+03  0.9389E-43
REACH   68     2000     8   0.4046E+04  0.1036E+03  0.9529E-43
REACH   69     2000     8   0.2071E+02  0.7392E+00  0.9669E-43
REACH   70     2000     8   0.4427E+02  0.1111E+01  0.9809E-43
REACH   71     2000     8   0.2069E+04  0.6437E+02  0.9949E-43
REACH   72     2000     8   0.3180E+02  0.9246E+00  0.1009E-42
REACH   73     2000     8   0.2120E+04  0.6559E+02  0.1023E-42
REACH   74     2000     8   0.3799E+04  0.9520E+02  0.1037E-42
REACH   75     2000     8   0.3013E+02  0.7737E+00  0.1051E-42
REACH   76     2000     8   0.2146E+04  0.6632E+02  0.1065E-42
REACH   77     2000     8   0.2522E+02  0.7048E+00  0.1079E-42
REACH   78     2000     8   0.5191E+02  0.1484E+01  0.1093E-42
REACH   79     2000     8   0.3323E+02  0.1283E+01  0.1107E-42
REACH   80     2000     8   0.2881E+02  0.6870E+00  0.1121E-42
REACH   81     2000     8   0.2183E+04  0.6724E+02  0.1135E-42
REACH   82     2000     8   0.2212E+04  0.6792E+02  0.1149E-42
REACH   83     2000     8   0.4726E+02  0.1201E+01  0.1163E-42
REACH   84     2000     8   0.1599E+03  0.5298E+01  0.1177E-42
REACH   85     2000     8   0.5833E+02  0.1607E+01  0.1191E-42
REACH   86     2000     8   0.2327E+04  0.7102E+02  0.1205E-42
REACH   87     2000     8   0.8494E+02  0.2301E+01  0.1219E-42
REACH   88     2000     8   0.2048E+02  0.5609E+00  0.1233E-42
REACH   89     2000     8   0.3798E+04  0.9525E+02  0.1247E-42
REACH   90     2000     8   0.5319E+02  0.1458E+01  0.1261E-42
REACH   91     2000     8   0.2474E+02  0.3235E+00  0.1275E-42
REACH   92     2000     8   0.5608E+02  0.1450E+01  0.1289E-42
REACH   93     2000     8   0.8423E+02  0.2230E+01  0.1303E-42
REACH   94     2000     8   0.3037E+02  0.7641E+00  0.1317E-42
REACH   95     2000     8   0.1498E+03  0.3909E+01  0.1331E-42
REACH   96     2000     8   0.2482E+04  0.7384E+02  0.1345E-42
REACH   97     2000     8   0.2402E+04  0.7278E+02  0.1359E-42
REACH   98     2000     8   0.3888E+02  0.1051E+01  0.1373E-42
REACH   99     2000     8   0.1053E+03  0.4007E+01  0.1387E-42
REACH  100     2000     8   0.2271E+02  0.6020E+00  0.1401E-42
REACH  101     2000     8   0.3582E+04  0.9071E+02  0.1415E-42
REACH  102     2000     8   0.2002E+02  0.3967E+00  0.1429E-42
REACH  103     2000     8   0.3692E+04  0.9296E+02  0.1443E-42
REACH  104     2000     8   0.3420E+04  0.8655E+02  0.1457E-42
REACH  105     2000     8   0.2033E+02  0.2416E+00  0.1471E-42
REACH  106     2000     8   0.3631E+04  0.9179E+02  0.1485E-42
REACH  107     2000     8   0.2536E+04  0.7453E+02  0.1499E-42
REACH  108     2000     8   0.6391E+02  0.8133E+00  0.1513E-42
REACH  109     2000     8   0.3877E+02  0.4953E+00  0.1527E-42
REACH  110     2000     8   0.7494E+02  0.1053E+01  0.1541E-42
REACH  111     2000     8   0.3370E+04  0.8578E+02  0.1555E-42
REACH  112     2000     8   0.2896E+04  0.7974E+02  0.1569E-42
REACH  113     2000     8   0.6641E+02  0.1823E+01  0.1583E-42
REACH  114     2000     8   0.2639E+04  0.7575E+02  0.1597E-42
REACH  115     2000     8   0.3289E+02  0.4279E+00  0.1611E-42
REACH  116     2000     8   0.2981E+02  0.3730E+00  0.1626E-42
REACH  117     2000     8   0.4442E+03  0.5668E+01  0.1640E-42
REACH  118     2000     8   0.2688E+04  0.7631E+02  0.1654E-42
REACH  119     2000     8   0.8247E+02  0.1593E+01  0.1668E-42
REACH  120     2000     8   0.2763E+04  0.7719E+02  0.1682E-42
REACH  121     2000     8   0.6670E+02  0.8323E+00  0.1696E-42
REACH  122     2000     8   0.2829E+04  0.7800E+02  0.1710E-42
REACH  123     2000     8   0.2424E+02  0.3211E+00  0.1724E-42
REACH  124     2000     8   0.3708E+03  0.4743E+01  0.1738E-42
REACH  125     2000     8   0.2659E+02  0.3435E+00  0.1752E-42
REACH  126     2000     8   0.6529E+02  0.8574E+00  0.1766E-42
REACH  127     2000     8   0.3280E+03  0.4219E+01  0.1780E-42
REACH  128     2000     8   0.8844E+02  0.1203E+01  0.1794E-42
REACH  129     2000     8   0.2608E+03  0.3380E+01  0.1808E-42
REACH  130     2000     8   0.1634E+03  0.2158E+01  0.1822E-42
REACH  131     2000     8   0.4010E+02  0.5336E+00  0.1836E-42
REACH  132     2000     8   0.7371E+02  0.9658E+00  0.1850E-42
REACH  133     2000     8   0.3998E+02  0.4950E+00  0.1864E-42
REACH    1     2000     9   0.4585E+02  0.2327E+01  0.1401E-44
REACH    2     2000     9   0.8619E+02  0.4219E+01  0.2803E-44
REACH    3     2000     9   0.2798E+02  0.1438E+01  0.4204E-44
REACH    4     2000     9   0.1567E+03  0.7807E+01  0.5605E-44
REACH    5     2000     9   0.2745E+02  0.1010E+01  0.7006E-44
REACH    6     2000     9   0.3813E+02  0.1924E+01  0.8408E-44
REACH    7     2000     9   0.6591E+02  0.2946E+01  0.9809E-44
REACH    8     2000     9   0.2116E+03  0.1063E+02  0.1121E-43
REACH    9     2000     9   0.2220E+02  0.8134E+00  0.1261E-43
REACH   10     2000     9   0.2910E+03  0.1406E+02  0.1401E-43
REACH   11     2000     9   0.2229E+02  0.1121E+01  0.1541E-43
REACH   12     2000     9   0.3278E+02  0.1170E+01  0.1682E-43
REACH   13     2000     9   0.3212E+03  0.1514E+02  0.1822E-43
REACH   14     2000     9   0.2269E+02  0.7882E+00  0.1962E-43
REACH   15     2000     9   0.3566E+03  0.1639E+02  0.2102E-43
REACH   16     2000     9   0.3793E+03  0.1718E+02  0.2242E-43
REACH   17     2000     9   0.1357E+03  0.5604E+01  0.2382E-43
REACH   18     2000     9   0.9057E+02  0.3765E+01  0.2522E-43
REACH   19     2000     9   0.4180E+02  0.1742E+01  0.2662E-43
REACH   20     2000     9   0.4584E+02  0.1807E+01  0.2803E-43
REACH   21     2000     9   0.4139E+02  0.1614E+01  0.2943E-43
REACH   22     2000     9   0.2514E+02  0.9886E+00  0.3083E-43
REACH   23     2000     9   0.7947E+02  0.2651E+01  0.3223E-43
REACH   24     2000     9   0.5399E+03  0.2366E+02  0.3363E-43
REACH   25     2000     9   0.2292E+02  0.9100E+00  0.3503E-43
REACH   26     2000     9   0.7101E+02  0.2779E+01  0.3643E-43
REACH   27     2000     9   0.6298E+03  0.2664E+02  0.3784E-43
REACH   28     2000     9   0.3009E+02  0.1035E+01  0.3924E-43
REACH   29     2000     9   0.7268E+03  0.3061E+02  0.4064E-43
REACH   30     2000     9   0.4343E+02  0.1760E+01  0.4204E-43
REACH   31     2000     9   0.1261E+03  0.4972E+01  0.4344E-43
REACH   32     2000     9   0.3299E+02  0.1089E+01  0.4484E-43
REACH   33     2000     9   0.3851E+02  0.1305E+01  0.4624E-43
REACH   34     2000     9   0.7461E+02  0.2456E+01  0.4764E-43
REACH   35     2000     9   0.7673E+03  0.3206E+02  0.4905E-43
REACH   36     2000     9   0.8628E+02  0.3573E+01  0.5045E-43
REACH   37     2000     9   0.1832E+03  0.7287E+01  0.5185E-43
REACH   38     2000     9   0.6659E+02  0.2682E+01  0.5325E-43
REACH   39     2000     9   0.8468E+03  0.3466E+02  0.5465E-43
REACH   40     2000     9   0.8924E+02  0.3018E+01  0.5605E-43
REACH   41     2000     9   0.9498E+03  0.3879E+02  0.5745E-43
REACH   42     2000     9   0.8311E+02  0.3478E+01  0.5885E-43
REACH   43     2000     9   0.6887E+02  0.2333E+01  0.6026E-43
REACH   44     2000     9   0.1083E+04  0.4332E+02  0.6166E-43
REACH   45     2000     9   0.3193E+02  0.1095E+01  0.6306E-43
REACH   46     2000     9   0.1163E+04  0.4598E+02  0.6446E-43
REACH   47     2000     9   0.3257E+03  0.1306E+02  0.6586E-43
REACH   48     2000     9   0.3319E+02  0.1666E+01  0.6726E-43
REACH   49     2000     9   0.5702E+02  0.1953E+01  0.6866E-43
REACH   50     2000     9   0.1208E+04  0.4749E+02  0.7006E-43
REACH   51     2000     9   0.7000E+02  0.3513E+01  0.7147E-43
REACH   52     2000     9   0.3846E+03  0.1596E+02  0.7287E-43
REACH   53     2000     9   0.4831E+03  0.2089E+02  0.7427E-43
REACH   54     2000     9   0.4246E+04  0.1517E+03  0.7567E-43
REACH   55     2000     9   0.3064E+02  0.1515E+01  0.7707E-43
REACH   56     2000     9   0.1274E+04  0.4975E+02  0.7847E-43
REACH   57     2000     9   0.2057E+04  0.8347E+02  0.7987E-43
REACH   58     2000     9   0.7812E+03  0.3370E+02  0.8128E-43
REACH   59     2000     9   0.3367E+02  0.1701E+01  0.8268E-43
REACH   60     2000     9   0.3879E+02  0.1588E+01  0.8408E-43
REACH   61     2000     9   0.5714E+03  0.2531E+02  0.8548E-43
REACH   62     2000     9   0.7481E+03  0.3241E+02  0.8688E-43
REACH   63     2000     9   0.6197E+03  0.2723E+02  0.8828E-43
REACH   64     2000     9   0.4169E+04  0.1481E+03  0.8968E-43
REACH   65     2000     9   0.3903E+02  0.1834E+01  0.9108E-43
REACH   66     2000     9   0.4008E+04  0.1406E+03  0.9249E-43
REACH   67     2000     9   0.3960E+04  0.1383E+03  0.9389E-43
REACH   68     2000     9   0.4046E+04  0.1423E+03  0.9529E-43
REACH   69     2000     9   0.2071E+02  0.9446E+00  0.9669E-43
REACH   70     2000     9   0.4427E+02  0.1496E+01  0.9809E-43
REACH   71     2000     9   0.2069E+04  0.8394E+02  0.9949E-43
REACH   72     2000     9   0.3180E+02  0.1286E+01  0.1009E-42
REACH   73     2000     9   0.2120E+04  0.8564E+02  0.1023E-42
REACH   74     2000     9   0.3799E+04  0.1317E+03  0.1037E-42
REACH   75     2000     9   0.3013E+02  0.1037E+01  0.1051E-42
REACH   76     2000     9   0.2146E+04  0.8672E+02  0.1065E-42
REACH   77     2000     9   0.2522E+02  0.1030E+01  0.1079E-42
REACH   78     2000     9   0.5191E+02  0.2135E+01  0.1093E-42
REACH   79     2000     9   0.3323E+02  0.1598E+01  0.1107E-42
REACH   80     2000     9   0.2881E+02  0.9143E+00  0.1121E-42
REACH   81     2000     9   0.2183E+04  0.8800E+02  0.1135E-42
REACH   82     2000     9   0.2212E+04  0.8893E+02  0.1149E-42
REACH   83     2000     9   0.4726E+02  0.1425E+01  0.1163E-42
REACH   84     2000     9   0.1599E+03  0.6651E+01  0.1177E-42
REACH   85     2000     9   0.5833E+02  0.1808E+01  0.1191E-42
REACH   86     2000     9   0.2327E+04  0.9364E+02  0.1205E-42
REACH   87     2000     9   0.8494E+02  0.3521E+01  0.1219E-42
REACH   88     2000     9   0.2048E+02  0.8483E+00  0.1233E-42
REACH   89     2000     9   0.3798E+04  0.1317E+03  0.1247E-42
REACH   90     2000     9   0.5319E+02  0.1630E+01  0.1261E-42
REACH   91     2000     9   0.2474E+02  0.5029E+00  0.1275E-42
REACH   92     2000     9   0.5608E+02  0.1675E+01  0.1289E-42
REACH   93     2000     9   0.8423E+02  0.2567E+01  0.1303E-42
REACH   94     2000     9   0.3037E+02  0.9246E+00  0.1317E-42
REACH   95     2000     9   0.1498E+03  0.4505E+01  0.1331E-42
REACH   96     2000     9   0.2482E+04  0.9746E+02  0.1345E-42
REACH   97     2000     9   0.2402E+04  0.9574E+02  0.1359E-42
REACH   98     2000     9   0.3888E+02  0.1625E+01  0.1373E-42
REACH   99     2000     9   0.1053E+03  0.5003E+01  0.1387E-42
REACH  100     2000     9   0.2271E+02  0.6689E+00  0.1401E-42
REACH  101     2000     9   0.3582E+04  0.1223E+03  0.1415E-42
REACH  102     2000     9   0.2002E+02  0.8918E+00  0.1429E-42
REACH  103     2000     9   0.3692E+04  0.1270E+03  0.1443E-42
REACH  104     2000     9   0.3420E+04  0.1175E+03  0.1457E-42
REACH  105     2000     9   0.2033E+02  0.3861E+00  0.1471E-42
REACH  106     2000     9   0.3631E+04  0.1242E+03  0.1485E-42
REACH  107     2000     9   0.2536E+04  0.9855E+02  0.1499E-42
REACH  108     2000     9   0.6391E+02  0.1296E+01  0.1513E-42
REACH  109     2000     9   0.3877E+02  0.7658E+00  0.1527E-42
REACH  110     2000     9   0.7494E+02  0.1683E+01  0.1541E-42
REACH  111     2000     9   0.3370E+04  0.1158E+03  0.1555E-42
REACH  112     2000     9   0.2896E+04  0.1063E+03  0.1569E-42
REACH  113     2000     9   0.6641E+02  0.2070E+01  0.1583E-42
REACH  114     2000     9   0.2639E+04  0.1006E+03  0.1597E-42
REACH  115     2000     9   0.3289E+02  0.6810E+00  0.1611E-42
REACH  116     2000     9   0.2981E+02  0.5938E+00  0.1626E-42
REACH  117     2000     9   0.4442E+03  0.8922E+01  0.1640E-42
REACH  118     2000     9   0.2688E+04  0.1015E+03  0.1654E-42
REACH  119     2000     9   0.8247E+02  0.3767E+01  0.1668E-42
REACH  120     2000     9   0.2763E+04  0.1030E+03  0.1682E-42
REACH  121     2000     9   0.6670E+02  0.1344E+01  0.1696E-42
REACH  122     2000     9   0.2829E+04  0.1042E+03  0.1710E-42
REACH  123     2000     9   0.2424E+02  0.4884E+00  0.1724E-42
REACH  124     2000     9   0.3708E+03  0.7492E+01  0.1738E-42
REACH  125     2000     9   0.2659E+02  0.5335E+00  0.1752E-42
REACH  126     2000     9   0.6529E+02  0.1301E+01  0.1766E-42
REACH  127     2000     9   0.3280E+03  0.6671E+01  0.1780E-42
REACH  128     2000     9   0.8844E+02  0.1848E+01  0.1794E-42
REACH  129     2000     9   0.2608E+03  0.5348E+01  0.1808E-42
REACH  130     2000     9   0.1634E+03  0.3372E+01  0.1822E-42
REACH  131     2000     9   0.4010E+02  0.8219E+00  0.1836E-42
REACH  132     2000     9   0.7371E+02  0.1518E+01  0.1850E-42
REACH  133     2000     9   0.3998E+02  0.8150E+00  0.1864E-42
REACH    1     2000    10   0.4585E+02  0.2121E+01  0.1401E-44
REACH    2     2000    10   0.8619E+02  0.3926E+01  0.2803E-44
REACH    3     2000    10   0.2798E+02  0.1315E+01  0.4204E-44
REACH    4     2000    10   0.1567E+03  0.7158E+01  0.5605E-44
REACH    5     2000    10   0.2745E+02  0.1050E+01  0.7006E-44
REACH    6     2000    10   0.3813E+02  0.1804E+01  0.8408E-44
REACH    7     2000    10   0.6591E+02  0.2865E+01  0.9809E-44
REACH    8     2000    10   0.2116E+03  0.9702E+01  0.1121E-43
REACH    9     2000    10   0.2220E+02  0.8495E+00  0.1261E-43
REACH   10     2000    10   0.2910E+03  0.1307E+02  0.1401E-43
REACH   11     2000    10   0.2229E+02  0.1039E+01  0.1541E-43
REACH   12     2000    10   0.3278E+02  0.1248E+01  0.1682E-43
REACH   13     2000    10   0.3212E+03  0.1421E+02  0.1822E-43
REACH   14     2000    10   0.2269E+02  0.8066E+00  0.1962E-43
REACH   15     2000    10   0.3566E+03  0.1555E+02  0.2102E-43
REACH   16     2000    10   0.3793E+03  0.1635E+02  0.2242E-43
REACH   17     2000    10   0.1357E+03  0.5528E+01  0.2382E-43
REACH   18     2000    10   0.9057E+02  0.3750E+01  0.2522E-43
REACH   19     2000    10   0.4180E+02  0.1671E+01  0.2662E-43
REACH   20     2000    10   0.4584E+02  0.1843E+01  0.2803E-43
REACH   21     2000    10   0.4139E+02  0.1594E+01  0.2943E-43
REACH   22     2000    10   0.2514E+02  0.9558E+00  0.3083E-43
REACH   23     2000    10   0.7947E+02  0.2854E+01  0.3223E-43
REACH   24     2000    10   0.5399E+03  0.2275E+02  0.3363E-43
REACH   25     2000    10   0.2292E+02  0.9010E+00  0.3503E-43
REACH   26     2000    10   0.7101E+02  0.2722E+01  0.3643E-43
REACH   27     2000    10   0.6298E+03  0.2593E+02  0.3784E-43
REACH   28     2000    10   0.3009E+02  0.1074E+01  0.3924E-43
REACH   29     2000    10   0.7268E+03  0.2968E+02  0.4064E-43
REACH   30     2000    10   0.4343E+02  0.1669E+01  0.4204E-43
REACH   31     2000    10   0.1261E+03  0.4899E+01  0.4344E-43
REACH   32     2000    10   0.3299E+02  0.1135E+01  0.4484E-43
REACH   33     2000    10   0.3851E+02  0.1407E+01  0.4624E-43
REACH   34     2000    10   0.7461E+02  0.2693E+01  0.4764E-43
REACH   35     2000    10   0.7673E+03  0.3113E+02  0.4905E-43
REACH   36     2000    10   0.8628E+02  0.3371E+01  0.5045E-43
REACH   37     2000    10   0.1832E+03  0.7107E+01  0.5185E-43
REACH   38     2000    10   0.6659E+02  0.2573E+01  0.5325E-43
REACH   39     2000    10   0.8468E+03  0.3398E+02  0.5465E-43
REACH   40     2000    10   0.8924E+02  0.3151E+01  0.5605E-43
REACH   41     2000    10   0.9498E+03  0.3790E+02  0.5745E-43
REACH   42     2000    10   0.8311E+02  0.3235E+01  0.5885E-43
REACH   43     2000    10   0.6887E+02  0.2517E+01  0.6026E-43
REACH   44     2000    10   0.1083E+04  0.4261E+02  0.6166E-43
REACH   45     2000    10   0.3193E+02  0.1119E+01  0.6306E-43
REACH   46     2000    10   0.1163E+04  0.4550E+02  0.6446E-43
REACH   47     2000    10   0.3257E+03  0.1262E+02  0.6586E-43
REACH   48     2000    10   0.3319E+02  0.1486E+01  0.6726E-43
REACH   49     2000    10   0.5702E+02  0.2056E+01  0.6866E-43
REACH   50     2000    10   0.1208E+04  0.4707E+02  0.7006E-43
REACH   51     2000    10   0.7000E+02  0.3116E+01  0.7147E-43
REACH   52     2000    10   0.3846E+03  0.1526E+02  0.7287E-43
REACH   53     2000    10   0.4831E+03  0.1966E+02  0.7427E-43
REACH   54     2000    10   0.4246E+04  0.1520E+03  0.7567E-43
REACH   55     2000    10   0.3064E+02  0.1004E+01  0.7707E-43
REACH   56     2000    10   0.1274E+04  0.4948E+02  0.7847E-43
REACH   57     2000    10   0.2057E+04  0.8125E+02  0.7987E-43
REACH   58     2000    10   0.7812E+03  0.3173E+02  0.8128E-43
REACH   59     2000    10   0.3367E+02  0.1494E+01  0.8268E-43
REACH   60     2000    10   0.3879E+02  0.1501E+01  0.8408E-43
REACH   61     2000    10   0.5714E+03  0.2363E+02  0.8548E-43
REACH   62     2000    10   0.7481E+03  0.3045E+02  0.8688E-43
REACH   63     2000    10   0.6197E+03  0.2546E+02  0.8828E-43
REACH   64     2000    10   0.4169E+04  0.1495E+03  0.8968E-43
REACH   65     2000    10   0.3903E+02  0.1386E+01  0.9108E-43
[...]
REACH   83        0  2009   0.4726E+02  0.1119E+01  0.1163E-42
REACH   84        0  2009   0.1599E+03  0.1242E+01  0.1177E-42
REACH   85        0  2009   0.5833E+02  0.1429E+01  0.1191E-42
REACH   86        0  2009   0.2327E+04  0.6342E+02  0.1205E-42
REACH   87        0  2009   0.8494E+02  0.2223E+01  0.1219E-42
REACH   88        0  2009   0.2048E+02  0.5346E+00  0.1233E-42
REACH   89        0  2009   0.3798E+04  0.9696E+02  0.1247E-42
REACH   90        0  2009   0.5319E+02  0.1292E+01  0.1261E-42
REACH   91        0  2009   0.2474E+02  0.6076E+00  0.1275E-42
REACH   92        0  2009   0.5608E+02  0.1347E+01  0.1289E-42
REACH   93        0  2009   0.8423E+02  0.2033E+01  0.1303E-42
REACH   94        0  2009   0.3037E+02  0.7307E+00  0.1317E-42
REACH   95        0  2009   0.1498E+03  0.3591E+01  0.1331E-42
REACH   96        0  2009   0.2482E+04  0.6715E+02  0.1345E-42
REACH   97        0  2009   0.2402E+04  0.6523E+02  0.1359E-42
REACH   98        0  2009   0.3888E+02  0.1019E+01  0.1373E-42
REACH   99        0  2009   0.1053E+03  0.1076E+00  0.1387E-42
REACH  100        0  2009   0.2271E+02  0.5329E+00  0.1401E-42
REACH  101        0  2009   0.3582E+04  0.9329E+02  0.1415E-42
REACH  102        0  2009   0.2002E+02  0.3800E+00  0.1429E-42
REACH  103        0  2009   0.3692E+04  0.9543E+02  0.1443E-42
REACH  104        0  2009   0.3420E+04  0.8945E+02  0.1457E-42
REACH  105        0  2009   0.2033E+02  0.4739E+00  0.1471E-42
REACH  106        0  2009   0.3631E+04  0.9428E+02  0.1485E-42
REACH  107        0  2009   0.2536E+04  0.6847E+02  0.1499E-42
REACH  108        0  2009   0.6391E+02  0.1552E+01  0.1513E-42
REACH  109        0  2009   0.3877E+02  0.9400E+00  0.1527E-42
REACH  110        0  2009   0.7494E+02  0.1852E+01  0.1541E-42
REACH  111        0  2009   0.3370E+04  0.8846E+02  0.1555E-42
REACH  112        0  2009   0.2896E+04  0.7701E+02  0.1569E-42
REACH  113        0  2009   0.6641E+02  0.1617E+01  0.1583E-42
REACH  114        0  2009   0.2639E+04  0.7091E+02  0.1597E-42
REACH  115        0  2009   0.3289E+02  0.8005E+00  0.1611E-42
REACH  116        0  2009   0.2981E+02  0.7251E+00  0.1626E-42
REACH  117        0  2009   0.4442E+03  0.1074E+02  0.1640E-42
REACH  118        0  2009   0.2688E+04  0.7206E+02  0.1654E-42
REACH  119        0  2009   0.8247E+02  0.1573E+01  0.1668E-42
REACH  120        0  2009   0.2763E+04  0.7385E+02  0.1682E-42
REACH  121        0  2009   0.6670E+02  0.1625E+01  0.1696E-42
REACH  122        0  2009   0.2829E+04  0.7543E+02  0.1710E-42
REACH  123        0  2009   0.2424E+02  0.5877E+00  0.1724E-42
REACH  124        0  2009   0.3708E+03  0.8976E+01  0.1738E-42
REACH  125        0  2009   0.2659E+02  0.6436E+00  0.1752E-42
REACH  126        0  2009   0.6529E+02  0.1581E+01  0.1766E-42
REACH  127        0  2009   0.3280E+03  0.7958E+01  0.1780E-42
REACH  128        0  2009   0.8844E+02  0.2173E+01  0.1794E-42
REACH  129        0  2009   0.2608E+03  0.6343E+01  0.1808E-42
REACH  130        0  2009   0.1634E+03  0.3989E+01  0.1822E-42
REACH  131        0  2009   0.4010E+02  0.9767E+00  0.1836E-42
REACH  132        0  2009   0.7371E+02  0.1803E+01  0.1850E-42
REACH  133        0  2009   0.3998E+02  0.9664E+00  0.1864E-42
REACH    1     2010     1   0.4585E+02  0.2892E+00  0.1401E-44
REACH    2     2010     1   0.8619E+02  0.5048E+00  0.2803E-44
REACH    3     2010     1   0.2798E+02  0.1877E+00  0.4204E-44
REACH    4     2010     1   0.1567E+03  0.9523E+00  0.5605E-44
REACH    5     2010     1   0.2745E+02  0.1355E+00  0.7006E-44
REACH    6     2010     1   0.3813E+02  0.2541E+00  0.8408E-44
REACH    7     2010     1   0.6591E+02  0.3900E+00  0.9809E-44
REACH    8     2010     1   0.2116E+03  0.1319E+01  0.1121E-43
REACH    9     2010     1   0.2220E+02  0.1054E+00  0.1261E-43
REACH   10     2010     1   0.2910E+03  0.1782E+01  0.1401E-43
REACH   11     2010     1   0.2229E+02  0.1450E+00  0.1541E-43
REACH   12     2010     1   0.3278E+02  0.1540E+00  0.1682E-43
REACH   13     2010     1   0.3212E+03  0.1923E+01  0.1822E-43
REACH   14     2010     1   0.2269E+02  0.7952E-01  0.1962E-43
REACH   15     2010     1   0.3566E+03  0.2090E+01  0.2102E-43
REACH   16     2010     1   0.3793E+03  0.2169E+01  0.2242E-43
REACH   17     2010     1   0.1357E+03  0.1029E+01  0.2382E-43
REACH   18     2010     1   0.9057E+02  0.7830E+00  0.2522E-43
REACH   19     2010     1   0.4180E+02  0.2329E+00  0.2662E-43
REACH   20     2010     1   0.4584E+02  0.5218E+00  0.2803E-43
REACH   21     2010     1   0.4139E+02  0.4493E+00  0.2943E-43
REACH   22     2010     1   0.2514E+02  0.2881E+00  0.3083E-43
REACH   23     2010     1   0.7947E+02  0.2735E+00  0.3223E-43
REACH   24     2010     1   0.5399E+03  0.3342E+01  0.3363E-43
REACH   25     2010     1   0.2292E+02  0.2558E+00  0.3503E-43
REACH   26     2010     1   0.7101E+02  0.7879E+00  0.3643E-43
REACH   27     2010     1   0.6298E+03  0.3662E+01  0.3784E-43
REACH   28     2010     1   0.3009E+02  0.1659E+00  0.3924E-43
REACH   29     2010     1   0.7268E+03  0.4252E+01  0.4064E-43
REACH   30     2010     1   0.4343E+02  0.4874E+00  0.4204E-43
REACH   31     2010     1   0.1261E+03  0.1413E+01  0.4344E-43
REACH   32     2010     1   0.3299E+02  0.2830E+00  0.4484E-43
REACH   33     2010     1   0.3851E+02  0.3347E+00  0.4624E-43
REACH   34     2010     1   0.7461E+02  0.6373E+00  0.4764E-43
REACH   35     2010     1   0.7673E+03  0.4493E+01  0.4905E-43
REACH   36     2010     1   0.8628E+02  0.5181E+00  0.5045E-43
REACH   37     2010     1   0.1832E+03  0.2058E+01  0.5185E-43
REACH   38     2010     1   0.6659E+02  0.7445E+00  0.5325E-43
REACH   39     2010     1   0.8468E+03  0.5169E+01  0.5465E-43
REACH   40     2010     1   0.8924E+02  0.7836E+00  0.5605E-43
REACH   41     2010     1   0.9498E+03  0.5998E+01  0.5745E-43
REACH   42     2010     1   0.8311E+02  0.6485E+00  0.5885E-43
REACH   43     2010     1   0.6887E+02  0.6089E+00  0.6026E-43
REACH   44     2010     1   0.1083E+04  0.7199E+01  0.6166E-43
REACH   45     2010     1   0.3193E+02  0.3013E+00  0.6306E-43
REACH   46     2010     1   0.1163E+04  0.7902E+01  0.6446E-43
REACH   47     2010     1   0.3257E+03  0.3660E+01  0.6586E-43
REACH   48     2010     1   0.3319E+02  0.4013E+00  0.6726E-43
REACH   49     2010     1   0.5702E+02  0.5407E+00  0.6866E-43
REACH   50     2010     1   0.1208E+04  0.8322E+01  0.7006E-43
REACH   51     2010     1   0.7000E+02  0.8421E+00  0.7147E-43
REACH   52     2010     1   0.3846E+03  0.4370E+01  0.7287E-43
REACH   53     2010     1   0.4831E+03  0.5555E+01  0.7427E-43
REACH   54     2010     1   0.4246E+04  0.2844E+02  0.7567E-43
REACH   55     2010     1   0.3064E+02  0.4873E-01  0.7707E-43
REACH   56     2010     1   0.1274E+04  0.8948E+01  0.7847E-43
REACH   57     2010     1   0.2057E+04  0.1819E+02  0.7987E-43
REACH   58     2010     1   0.7812E+03  0.9233E+01  0.8128E-43
REACH   59     2010     1   0.3367E+02  0.4014E+00  0.8268E-43
REACH   60     2010     1   0.3879E+02  0.4876E+00  0.8408E-43
REACH   61     2010     1   0.5714E+03  0.6624E+01  0.8548E-43
REACH   62     2010     1   0.7481E+03  0.8824E+01  0.8688E-43
REACH   63     2010     1   0.6197E+03  0.7213E+01  0.8828E-43
REACH   64     2010     1   0.4169E+04  0.2835E+02  0.8968E-43
REACH   65     2010     1   0.3903E+02  0.1210E-01  0.9108E-43
REACH   66     2010     1   0.4008E+04  0.2823E+02  0.9249E-43
REACH   67     2010     1   0.3960E+04  0.2822E+02  0.9389E-43
REACH   68     2010     1   0.4046E+04  0.2825E+02  0.9529E-43
REACH   69     2010     1   0.2071E+02  0.1233E-01  0.9669E-43
REACH   70     2010     1   0.4427E+02  0.4147E+00  0.9809E-43
REACH   71     2010     1   0.2069E+04  0.1834E+02  0.9949E-43
REACH   72     2010     1   0.3180E+02  0.4074E+00  0.1009E-42
REACH   73     2010     1   0.2120E+04  0.1881E+02  0.1023E-42
REACH   74     2010     1   0.3799E+04  0.2785E+02  0.1037E-42
REACH   75     2010     1   0.3013E+02  0.2758E+00  0.1051E-42
REACH   76     2010     1   0.2146E+04  0.1914E+02  0.1065E-42
REACH   77     2010     1   0.2522E+02  0.3189E+00  0.1079E-42
REACH   78     2010     1   0.5191E+02  0.6588E+00  0.1093E-42
REACH   79     2010     1   0.3323E+02  0.1517E-01  0.1107E-42
REACH   80     2010     1   0.2881E+02  0.2502E+00  0.1121E-42
REACH   81     2010     1   0.2183E+04  0.1949E+02  0.1135E-42
REACH   82     2010     1   0.2212E+04  0.1974E+02  0.1149E-42
REACH   83     2010     1   0.4726E+02  0.3542E+00  0.1163E-42
REACH   84     2010     1   0.1599E+03  0.3734E+00  0.1177E-42
REACH   85     2010     1   0.5833E+02  0.4186E+00  0.1191E-42
REACH   86     2010     1   0.2327E+04  0.2121E+02  0.1205E-42
REACH   87     2010     1   0.8494E+02  0.1093E+01  0.1219E-42
REACH   88     2010     1   0.2048E+02  0.2641E+00  0.1233E-42
REACH   89     2010     1   0.3798E+04  0.2787E+02  0.1247E-42
REACH   90     2010     1   0.5319E+02  0.3777E+00  0.1261E-42
REACH   91     2010     1   0.2474E+02  0.1035E+00  0.1275E-42
REACH   92     2010     1   0.5608E+02  0.3959E+00  0.1289E-42
REACH   93     2010     1   0.8423E+02  0.5743E+00  0.1303E-42
REACH   94     2010     1   0.3037E+02  0.1950E+00  0.1317E-42
REACH   95     2010     1   0.1498E+03  0.1005E+01  0.1331E-42
REACH   96     2010     1   0.2482E+04  0.2204E+02  0.1345E-42
REACH   97     2010     1   0.2402E+04  0.2168E+02  0.1359E-42
REACH   98     2010     1   0.3888E+02  0.5007E+00  0.1373E-42
REACH   99     2010     1   0.1053E+03  0.8947E-01  0.1387E-42
REACH  100     2010     1   0.2271E+02  0.1652E+00  0.1401E-42
REACH  101     2010     1   0.3582E+04  0.2667E+02  0.1415E-42
REACH  102     2010     1   0.2002E+02  0.1198E+00  0.1429E-42
REACH  103     2010     1   0.3692E+04  0.2738E+02  0.1443E-42
REACH  104     2010     1   0.3420E+04  0.2561E+02  0.1457E-42
REACH  105     2010     1   0.2033E+02  0.8326E-01  0.1471E-42
REACH  106     2010     1   0.3631E+04  0.2698E+02  0.1485E-42
REACH  107     2010     1   0.2536E+04  0.2225E+02  0.1499E-42
REACH  108     2010     1   0.6391E+02  0.2134E+00  0.1513E-42
REACH  109     2010     1   0.3877E+02  0.1371E+00  0.1527E-42
REACH  110     2010     1   0.7494E+02  0.3635E+00  0.1541E-42
REACH  111     2010     1   0.3370E+04  0.2536E+02  0.1555E-42
REACH  112     2010     1   0.2896E+04  0.2369E+02  0.1569E-42
REACH  113     2010     1   0.6641E+02  0.4033E+00  0.1583E-42
REACH  114     2010     1   0.2639E+04  0.2259E+02  0.1597E-42
REACH  115     2010     1   0.3289E+02  0.1109E+00  0.1611E-42
REACH  116     2010     1   0.2981E+02  0.9874E-01  0.1626E-42
REACH  117     2010     1   0.4442E+03  0.1543E+01  0.1640E-42
REACH  118     2010     1   0.2688E+04  0.2275E+02  0.1654E-42
REACH  119     2010     1   0.8247E+02  0.5113E+00  0.1668E-42
REACH  120     2010     1   0.2763E+04  0.2302E+02  0.1682E-42
REACH  121     2010     1   0.6670E+02  0.2592E+00  0.1696E-42
REACH  122     2010     1   0.2829E+04  0.2330E+02  0.1710E-42
REACH  123     2010     1   0.2424E+02  0.1043E+00  0.1724E-42
REACH  124     2010     1   0.3708E+03  0.1228E+01  0.1738E-42
REACH  125     2010     1   0.2659E+02  0.1182E+00  0.1752E-42
REACH  126     2010     1   0.6529E+02  0.2892E+00  0.1766E-42
REACH  127     2010     1   0.3280E+03  0.1048E+01  0.1780E-42
REACH  128     2010     1   0.8844E+02  0.2529E+00  0.1794E-42
REACH  129     2010     1   0.2608E+03  0.7728E+00  0.1808E-42
REACH  130     2010     1   0.1634E+03  0.4542E+00  0.1822E-42
REACH  131     2010     1   0.4010E+02  0.1538E+00  0.1836E-42
REACH  132     2010     1   0.7371E+02  0.2034E+00  0.1850E-42
REACH  133     2010     1   0.3998E+02  0.1102E+00  0.1864E-42
REACH    1     2010     2   0.4585E+02  0.6427E+00  0.1401E-44
REACH    2     2010     2   0.8619E+02  0.1191E+01  0.2803E-44
REACH    3     2010     2   0.2798E+02  0.3993E+00  0.4204E-44
REACH    4     2010     2   0.1567E+03  0.2166E+01  0.5605E-44
REACH    5     2010     2   0.2745E+02  0.3460E+00  0.7006E-44
REACH    6     2010     2   0.3813E+02  0.5501E+00  0.8408E-44
REACH    7     2010     2   0.6591E+02  0.8978E+00  0.9809E-44
REACH    8     2010     2   0.2116E+03  0.2932E+01  0.1121E-43
REACH    9     2010     2   0.2220E+02  0.2711E+00  0.1261E-43
REACH   10     2010     2   0.2910E+03  0.3995E+01  0.1401E-43
REACH   11     2010     2   0.2229E+02  0.3134E+00  0.1541E-43
REACH   12     2010     2   0.3278E+02  0.4074E+00  0.1682E-43
REACH   13     2010     2   0.3212E+03  0.4357E+01  0.1822E-43
REACH   14     2010     2   0.2269E+02  0.2523E+00  0.1962E-43
REACH   15     2010     2   0.3566E+03  0.4793E+01  0.2102E-43
REACH   16     2010     2   0.3793E+03  0.5044E+01  0.2242E-43
REACH   17     2010     2   0.1357E+03  0.2010E+01  0.2382E-43
REACH   18     2010     2   0.9057E+02  0.1391E+01  0.2522E-43
REACH   19     2010     2   0.4180E+02  0.5863E+00  0.2662E-43
REACH   20     2010     2   0.4584E+02  0.7934E+00  0.2803E-43
REACH   21     2010     2   0.4139E+02  0.7073E+00  0.2943E-43
REACH   22     2010     2   0.2514E+02  0.4323E+00  0.3083E-43
REACH   23     2010     2   0.7947E+02  0.8586E+00  0.3223E-43
REACH   24     2010     2   0.5399E+03  0.7346E+01  0.3363E-43
REACH   25     2010     2   0.2292E+02  0.3817E+00  0.3503E-43
REACH   26     2010     2   0.7101E+02  0.1215E+01  0.3643E-43
REACH   27     2010     2   0.6298E+03  0.8307E+01  0.3784E-43
REACH   28     2010     2   0.3009E+02  0.3652E+00  0.3924E-43
REACH   29     2010     2   0.7268E+03  0.9635E+01  0.4064E-43
REACH   30     2010     2   0.4343E+02  0.7207E+00  0.4204E-43
REACH   31     2010     2   0.1261E+03  0.2155E+01  0.4344E-43
REACH   32     2010     2   0.3299E+02  0.5381E+00  0.4484E-43
REACH   33     2010     2   0.3851E+02  0.6453E+00  0.4624E-43
REACH   34     2010     2   0.7461E+02  0.1237E+01  0.4764E-43
REACH   35     2010     2   0.7673E+03  0.1013E+02  0.4905E-43
REACH   36     2010     2   0.8628E+02  0.1193E+01  0.5045E-43
REACH   37     2010     2   0.1832E+03  0.3108E+01  0.5185E-43
REACH   38     2010     2   0.6659E+02  0.1142E+01  0.5325E-43
REACH   39     2010     2   0.8468E+03  0.1143E+02  0.5465E-43
REACH   40     2010     2   0.8924E+02  0.1427E+01  0.5605E-43
REACH   41     2010     2   0.9498E+03  0.1288E+02  0.5745E-43
REACH   42     2010     2   0.8311E+02  0.1186E+01  0.5885E-43
REACH   43     2010     2   0.6887E+02  0.1157E+01  0.6026E-43
REACH   44     2010     2   0.1083E+04  0.1494E+02  0.6166E-43
REACH   45     2010     2   0.3193E+02  0.4580E+00  0.6306E-43
REACH   46     2010     2   0.1163E+04  0.1624E+02  0.6446E-43
REACH   47     2010     2   0.3257E+03  0.5536E+01  0.6586E-43
REACH   48     2010     2   0.3319E+02  0.6627E+00  0.6726E-43
REACH   49     2010     2   0.5702E+02  0.8381E+00  0.6866E-43
REACH   50     2010     2   0.1208E+04  0.1688E+02  0.7006E-43
REACH   51     2010     2   0.7000E+02  0.1407E+01  0.7147E-43
REACH   52     2010     2   0.3846E+03  0.6705E+01  0.7287E-43
REACH   53     2010     2   0.4831E+03  0.8682E+01  0.7427E-43
REACH   54     2010     2   0.4246E+04  0.4684E+02  0.7567E-43
REACH   55     2010     2   0.3064E+02  0.7615E-01  0.7707E-43
REACH   56     2010     2   0.1274E+04  0.1785E+02  0.7847E-43
REACH   57     2010     2   0.2057E+04  0.3243E+02  0.7987E-43
REACH   58     2010     2   0.7812E+03  0.1458E+02  0.8128E-43
REACH   59     2010     2   0.3367E+02  0.6743E+00  0.8268E-43
REACH   60     2010     2   0.3879E+02  0.7763E+00  0.8408E-43
REACH   61     2010     2   0.5714E+03  0.1044E+02  0.8548E-43
REACH   62     2010     2   0.7481E+03  0.1394E+02  0.8688E-43
REACH   63     2010     2   0.6197E+03  0.1138E+02  0.8828E-43
REACH   64     2010     2   0.4169E+04  0.4671E+02  0.8968E-43
REACH   65     2010     2   0.3903E+02  0.1915E-01  0.9108E-43
REACH   66     2010     2   0.4008E+04  0.4653E+02  0.9249E-43
REACH   67     2010     2   0.3960E+04  0.4650E+02  0.9389E-43
REACH   68     2010     2   0.4046E+04  0.4656E+02  0.9529E-43
REACH   69     2010     2   0.2071E+02  0.1900E-01  0.9669E-43
REACH   70     2010     2   0.4427E+02  0.6338E+00  0.9809E-43
REACH   71     2010     2   0.2069E+04  0.3268E+02  0.9949E-43
REACH   72     2010     2   0.3180E+02  0.6395E+00  0.1009E-42
REACH   73     2010     2   0.2120E+04  0.3341E+02  0.1023E-42
REACH   74     2010     2   0.3799E+04  0.4585E+02  0.1037E-42
REACH   75     2010     2   0.3013E+02  0.4208E+00  0.1051E-42
REACH   76     2010     2   0.2146E+04  0.3393E+02  0.1065E-42
REACH   77     2010     2   0.2522E+02  0.5092E+00  0.1079E-42
REACH   78     2010     2   0.5191E+02  0.1049E+01  0.1093E-42
REACH   79     2010     2   0.3323E+02  0.2389E-01  0.1107E-42
REACH   80     2010     2   0.2881E+02  0.4198E+00  0.1121E-42
REACH   81     2010     2   0.2183E+04  0.3447E+02  0.1135E-42
REACH   82     2010     2   0.2212E+04  0.3490E+02  0.1149E-42
REACH   83     2010     2   0.4726E+02  0.6375E+00  0.1163E-42
REACH   84     2010     2   0.1599E+03  0.6682E+00  0.1177E-42
REACH   85     2010     2   0.5833E+02  0.8240E+00  0.1191E-42
REACH   86     2010     2   0.2327E+04  0.3723E+02  0.1205E-42
REACH   87     2010     2   0.8494E+02  0.1732E+01  0.1219E-42
REACH   88     2010     2   0.2048E+02  0.4164E+00  0.1233E-42
REACH   89     2010     2   0.3798E+04  0.4588E+02  0.1247E-42
REACH   90     2010     2   0.5319E+02  0.7243E+00  0.1261E-42
REACH   91     2010     2   0.2474E+02  0.5723E-01  0.1275E-42
REACH   92     2010     2   0.5608E+02  0.7456E+00  0.1289E-42
REACH   93     2010     2   0.8423E+02  0.1134E+01  0.1303E-42
REACH   94     2010     2   0.3037E+02  0.4043E+00  0.1317E-42
REACH   95     2010     2   0.1498E+03  0.1984E+01  0.1331E-42
REACH   96     2010     2   0.2482E+04  0.3827E+02  0.1345E-42
REACH   97     2010     2   0.2402E+04  0.3807E+02  0.1359E-42
REACH   98     2010     2   0.3888E+02  0.7956E+00  0.1373E-42
REACH   99     2010     2   0.1053E+03  0.1403E+00  0.1387E-42
REACH  100     2010     2   0.2271E+02  0.3000E+00  0.1401E-42
REACH  101     2010     2   0.3582E+04  0.4323E+02  0.1415E-42
REACH  102     2010     2   0.2002E+02  0.2778E+00  0.1429E-42
REACH  103     2010     2   0.3692E+04  0.4475E+02  0.1443E-42
REACH  104     2010     2   0.3420E+04  0.4112E+02  0.1457E-42
REACH  105     2010     2   0.2033E+02  0.5129E-01  0.1471E-42
REACH  106     2010     2   0.3631E+04  0.4388E+02  0.1485E-42
REACH  107     2010     2   0.2536E+04  0.3839E+02  0.1499E-42
REACH  108     2010     2   0.6391E+02  0.1073E+00  0.1513E-42
REACH  109     2010     2   0.3877E+02  0.7346E-01  0.1527E-42
REACH  110     2010     2   0.7494E+02  0.2132E+00  0.1541E-42
REACH  111     2010     2   0.3370E+04  0.4067E+02  0.1555E-42
REACH  112     2010     2   0.2896E+04  0.3978E+02  0.1569E-42
REACH  113     2010     2   0.6641E+02  0.8809E+00  0.1583E-42
REACH  114     2010     2   0.2639E+04  0.3855E+02  0.1597E-42
REACH  115     2010     2   0.3289E+02  0.5823E-01  0.1611E-42
REACH  116     2010     2   0.2981E+02  0.4781E-01  0.1626E-42
REACH  117     2010     2   0.4442E+03  0.8062E+00  0.1640E-42
REACH  118     2010     2   0.2688E+04  0.3862E+02  0.1654E-42
REACH  119     2010     2   0.8247E+02  0.1164E+01  0.1668E-42
REACH  120     2010     2   0.2763E+04  0.3876E+02  0.1682E-42
REACH  121     2010     2   0.6670E+02  0.1400E+00  0.1696E-42
REACH  122     2010     2   0.2829E+04  0.3893E+02  0.1710E-42
REACH  123     2010     2   0.2424E+02  0.6613E-01  0.1724E-42
REACH  124     2010     2   0.3708E+03  0.6090E+00  0.1738E-42
REACH  125     2010     2   0.2659E+02  0.7571E-01  0.1752E-42
REACH  126     2010     2   0.6529E+02  0.1862E+00  0.1766E-42
REACH  127     2010     2   0.3280E+03  0.4985E+00  0.1780E-42
REACH  128     2010     2   0.8844E+02  0.1048E+00  0.1794E-42
REACH  129     2010     2   0.2608E+03  0.3335E+00  0.1808E-42
REACH  130     2010     2   0.1634E+03  0.1795E+00  0.1822E-42
REACH  131     2010     2   0.4010E+02  0.9456E-01  0.1836E-42
REACH  132     2010     2   0.7371E+02  0.8292E-01  0.1850E-42
REACH  133     2010     2   0.3998E+02  0.4473E-01  0.1864E-42
