1
    SWAT Dec 11 2014    VER 2012/Rev 635                                                                 0/ 0/   0      0: 0: 0

    General Input/Output section (file.cio):                                        
    2020/9/9 0:00:00 ARCGIS-SWAT interface AV                                       
                                                                                    


       SUB      GIS  MON    AREAkm2  PRECIPmm
BIGSUB   1     2010    1 .45854E+02    59.731
BIGSUB   2     2010    1 .86189E+02    59.229
BIGSUB   3     2010    1 .27984E+02    59.731
BIGSUB   4     2010    1 .24648E+02    59.731
BIGSUB   5     2010    1 .27452E+02    62.433
BIGSUB   6     2010    1 .38126E+02    59.731
BIGSUB   7     2010    1 .33075E+00    59.731
BIGSUB   8     2010    1 .26952E+02    59.731
BIGSUB   9     2010    1 .22204E+02    62.433
BIGSUB  10     2010    1 .13462E+02    62.433
BIGSUB  11     2010    1 .22291E+02    59.731
BIGSUB  12     2010    1 .32784E+02    62.433
BIGSUB  13     2010    1 .79636E+01    62.433
BIGSUB  14     2010    1 .22689E+02    62.433
BIGSUB  15     2010    1 .26213E+01    62.433
BIGSUB  16     2010    1 .52920E-01    62.433
BIGSUB  17     2010    1 .33622E+01    62.433
BIGSUB  18     2010    1 .22436E+02    62.433
BIGSUB  19     2010    1 .41798E+02    69.636
BIGSUB  20     2010    1 .45842E+02    77.841
BIGSUB  21     2010    1 .41386E+02    75.750
BIGSUB  22     2010    1 .25137E+02    76.672
BIGSUB  23     2010    1 .79468E+02    62.433
BIGSUB  24     2010    1 .24827E+02    62.433
BIGSUB  25     2010    1 .22920E+02    77.841
BIGSUB  26     2010    1 .44894E+01    77.841
BIGSUB  27     2010    1 .10460E+02    62.433
BIGSUB  28     2010    1 .30092E+02    62.433
BIGSUB  29     2010    1 .10686E+02    69.636
BIGSUB  30     2010    1 .43433E+02    77.841
BIGSUB  31     2010    1 .32131E+02    77.841
BIGSUB  32     2010    1 .32989E+02    71.037
BIGSUB  33     2010    1 .38508E+02    71.037
BIGSUB  34     2010    1 .74614E+02    71.037
BIGSUB  35     2010    1 .10432E+02    69.636
BIGSUB  36     2010    1 .86277E+02    69.636
BIGSUB  37     2010    1 .13750E+02    77.841
BIGSUB  38     2010    1 .66594E+02    77.841
BIGSUB  39     2010    1 .49092E+01    66.735
BIGSUB  40     2010    1 .17745E+02    66.735
BIGSUB  41     2010    1 .19859E+02    66.735
BIGSUB  42     2010    1 .83111E+02    69.636
BIGSUB  43     2010    1 .68870E+02    71.037
BIGSUB  44     2010    1 .43924E+02    66.735
BIGSUB  45     2010    1 .31932E+02    66.735
BIGSUB  46     2010    1 .11068E+02    66.735
BIGSUB  47     2010    1 .75818E+02    77.841
BIGSUB  48     2010    1 .33194E+02    78.941
BIGSUB  49     2010    1 .57024E+02    66.735
BIGSUB  50     2010    1 .12993E+02    66.735
BIGSUB  51     2010    1 .69997E+02    78.941
BIGSUB  52     2010    1 .25723E+02    78.941
BIGSUB  53     2010    1 .28527E+02    78.941
BIGSUB  54     2010    1 .46893E+02    42.022
BIGSUB  55     2010    1 .30643E+02    42.022
BIGSUB  56     2010    1 .94436E+01    66.735
BIGSUB  57     2010    1 .15118E+01    66.735
BIGSUB  58     2010    1 .12948E+01    74.339
BIGSUB  59     2010    1 .33671E+02    78.941
BIGSUB  60     2010    1 .38787E+02    74.339
BIGSUB  61     2010    1 .54657E+02    78.941
BIGSUB  62     2010    1 .76482E+02    74.339
BIGSUB  63     2010    1 .94665E+01    74.339
BIGSUB  64     2010    1 .17570E+02    42.022
BIGSUB  65     2010    1 .39035E+02    42.022
BIGSUB  66     2010    1 .89894E+01    42.022
BIGSUB  67     2010    1 .90405E+00    42.022
BIGSUB  68     2010    1 .17293E+02    42.022
BIGSUB  69     2010    1 .20709E+02    42.022
BIGSUB  70     2010    1 .44265E+02    66.735
BIGSUB  71     2010    1 .12188E+02    74.339
BIGSUB  72     2010    1 .31804E+02    74.339
BIGSUB  73     2010    1 .63116E+01    74.339
BIGSUB  74     2010    1 .12692E+01    42.022
BIGSUB  75     2010    1 .30132E+02    66.735
BIGSUB  76     2010    1 .13600E+01    74.339
BIGSUB  77     2010    1 .25220E+02    74.339
BIGSUB  78     2010    1 .51909E+02    74.339
BIGSUB  79     2010    1 .33231E+02    42.022
BIGSUB  80     2010    1 .28811E+02    66.735
BIGSUB  81     2010    1 .63654E+01    74.339
BIGSUB  82     2010    1 .59182E+00    74.339
BIGSUB  83     2010    1 .47258E+02    51.827
BIGSUB  84     2010    1 .79373E+02    42.022
BIGSUB  85     2010    1 .58331E+02    51.827
BIGSUB  86     2010    1 .29852E+02    74.339
BIGSUB  87     2010    1 .25581E+02    74.339
BIGSUB  88     2010    1 .20477E+02    74.339
BIGSUB  89     2010    1 .22789E+02    42.022
BIGSUB  90     2010    1 .53191E+02    51.827
BIGSUB  91     2010    1 .24741E+02     0.000
BIGSUB  92     2010    1 .56077E+02    51.827
BIGSUB  93     2010    1 .66944E+00    51.827
BIGSUB  94     2010    1 .30369E+02    51.827
BIGSUB  95     2010    1 .95265E+01    51.827
BIGSUB  96     2010    1 .44356E+01     0.000
BIGSUB  97     2010    1 .17044E+02     0.000
BIGSUB  98     2010    1 .38880E+02    74.339
BIGSUB  99     2010    1 .10526E+03    42.022
BIGSUB 100     2010    1 .22712E+02    51.827
BIGSUB 101     2010    1 .12029E+02    51.827
BIGSUB 102     2010    1 .20023E+02    60.231
BIGSUB 103     2010    1 .41736E+02    60.231
BIGSUB 104     2010    1 .29717E+02    60.231
BIGSUB 105     2010    1 .20328E+02     0.000
BIGSUB 106     2010    1 .25620E+02    60.231
BIGSUB 107     2010    1 .29696E+02     0.000
BIGSUB 108     2010    1 .12128E+01     0.000
BIGSUB 109     2010    1 .38774E+02     0.000
BIGSUB 110     2010    1 .74938E+02     0.000
BIGSUB 111     2010    1 .29993E+02     0.000
BIGSUB 112     2010    1 .64651E+00     0.000
BIGSUB 113     2010    1 .66414E+02    51.827
BIGSUB 114     2010    1 .38803E+02     0.000
BIGSUB 115     2010    1 .32887E+02     0.000
BIGSUB 116     2010    1 .29806E+02     0.000
BIGSUB 117     2010    1 .81135E+01     0.000
BIGSUB 118     2010    1 .10668E+02     0.000
BIGSUB 119     2010    1 .82472E+02    60.231
BIGSUB 120     2010    1 .83543E+01     0.000
BIGSUB 121     2010    1 .66700E+02     0.000
BIGSUB 122     2010    1 .41534E+02     0.000
BIGSUB 123     2010    1 .24242E+02     0.000
BIGSUB 124     2010    1 .16211E+02     0.000
BIGSUB 125     2010    1 .26587E+02     0.000
BIGSUB 126     2010    1 .65288E+02     0.000
BIGSUB 127     2010    1 .27142E+02     0.000
BIGSUB 128     2010    1 .88441E+02     0.000
BIGSUB 129     2010    1 .57422E+02     0.000
BIGSUB 130     2010    1 .12472E+01     0.000
BIGSUB 131     2010    1 .40099E+02     0.000
BIGSUB 132     2010    1 .73705E+02     0.000
BIGSUB 133     2010    1 .39979E+02     0.000
BIGSUB   1     2010    2 .45854E+02    60.932
BIGSUB   2     2010    2 .86189E+02    60.420
BIGSUB   3     2010    2 .27984E+02    60.932
BIGSUB   4     2010    2 .24648E+02    60.932
BIGSUB   5     2010    2 .27452E+02    48.725
BIGSUB   6     2010    2 .38126E+02    60.932
BIGSUB   7     2010    2 .33075E+00    60.932
BIGSUB   8     2010    2 .26952E+02    60.932
BIGSUB   9     2010    2 .22204E+02    48.725
BIGSUB  10     2010    2 .13462E+02    48.725
BIGSUB  11     2010    2 .22291E+02    60.932
BIGSUB  12     2010    2 .32784E+02    48.725
BIGSUB  13     2010    2 .79636E+01    48.725
BIGSUB  14     2010    2 .22689E+02    48.725
BIGSUB  15     2010    2 .26213E+01    48.725
BIGSUB  16     2010    2 .52920E-01    48.725
BIGSUB  17     2010    2 .33622E+01    48.725
BIGSUB  18     2010    2 .22436E+02    48.725
BIGSUB  19     2010    2 .41798E+02    57.030
BIGSUB  20     2010    2 .45842E+02    55.829
BIGSUB  21     2010    2 .41386E+02    54.330
BIGSUB  22     2010    2 .25137E+02    54.991
BIGSUB  23     2010    2 .79468E+02    48.725
BIGSUB  24     2010    2 .24827E+02    48.725
BIGSUB  25     2010    2 .22920E+02    55.829
BIGSUB  26     2010    2 .44894E+01    55.829
BIGSUB  27     2010    2 .10460E+02    48.725
BIGSUB  28     2010    2 .30092E+02    48.725
BIGSUB  29     2010    2 .10686E+02    57.030
BIGSUB  30     2010    2 .43433E+02    55.829
BIGSUB  31     2010    2 .32131E+02    55.829
BIGSUB  32     2010    2 .32989E+02    58.931
BIGSUB  33     2010    2 .38508E+02    58.931
BIGSUB  34     2010    2 .74614E+02    58.931
BIGSUB  35     2010    2 .10432E+02    57.030
BIGSUB  36     2010    2 .86277E+02    57.030
BIGSUB  37     2010    2 .13750E+02    55.829
BIGSUB  38     2010    2 .66594E+02    55.829
BIGSUB  39     2010    2 .49092E+01    51.827
BIGSUB  40     2010    2 .17745E+02    51.827
BIGSUB  41     2010    2 .19859E+02    51.827
BIGSUB  42     2010    2 .83111E+02    57.030
BIGSUB  43     2010    2 .68870E+02    58.931
BIGSUB  44     2010    2 .43924E+02    51.827
BIGSUB  45     2010    2 .31932E+02    51.827
BIGSUB  46     2010    2 .11068E+02    51.827
BIGSUB  47     2010    2 .75818E+02    55.829
BIGSUB  48     2010    2 .33194E+02    65.834
BIGSUB  49     2010    2 .57024E+02    51.827
BIGSUB  50     2010    2 .12993E+02    51.827
BIGSUB  51     2010    2 .69997E+02    65.834
BIGSUB  52     2010    2 .25723E+02    65.834
BIGSUB  53     2010    2 .28527E+02    65.834
BIGSUB  54     2010    2 .46893E+02    40.421
BIGSUB  55     2010    2 .30643E+02    40.421
BIGSUB  56     2010    2 .94436E+01    51.827
BIGSUB  57     2010    2 .15118E+01    51.827
BIGSUB  58     2010    2 .12948E+01    67.435
BIGSUB  59     2010    2 .33671E+02    65.834
BIGSUB  60     2010    2 .38787E+02    67.435
BIGSUB  61     2010    2 .54657E+02    65.834
BIGSUB  62     2010    2 .76482E+02    67.435
BIGSUB  63     2010    2 .94665E+01    67.435
BIGSUB  64     2010    2 .17570E+02    40.421
BIGSUB  65     2010    2 .39035E+02    40.421
BIGSUB  66     2010    2 .89894E+01    40.421
BIGSUB  67     2010    2 .90405E+00    40.421
BIGSUB  68     2010    2 .17293E+02    40.421
BIGSUB  69     2010    2 .20709E+02    40.421
BIGSUB  70     2010    2 .44265E+02    51.827
BIGSUB  71     2010    2 .12188E+02    67.435
BIGSUB  72     2010    2 .31804E+02    67.435
BIGSUB  73     2010    2 .63116E+01    67.435
BIGSUB  74     2010    2 .12692E+01    40.421
BIGSUB  75     2010    2 .30132E+02    51.827
BIGSUB  76     2010    2 .13600E+01    67.435
BIGSUB  77     2010    2 .25220E+02    67.435
BIGSUB  78     2010    2 .51909E+02    67.435
BIGSUB  79     2010    2 .33231E+02    40.421
BIGSUB  80     2010    2 .28811E+02    51.827
BIGSUB  81     2010    2 .63654E+01    67.435
BIGSUB  82     2010    2 .59182E+00    67.435
BIGSUB  83     2010    2 .47258E+02    57.830
BIGSUB  84     2010    2 .79373E+02    40.421
BIGSUB  85     2010    2 .58331E+02    57.830
BIGSUB  86     2010    2 .29852E+02    67.435
BIGSUB  87     2010    2 .25581E+02    67.435
BIGSUB  88     2010    2 .20477E+02    67.435
BIGSUB  89     2010    2 .22789E+02    40.421
BIGSUB  90     2010    2 .53191E+02    57.830
BIGSUB  91     2010    2 .24741E+02     0.000
BIGSUB  92     2010    2 .56077E+02    57.830
BIGSUB  93     2010    2 .66944E+00    57.830
BIGSUB  94     2010    2 .30369E+02    57.830
BIGSUB  95     2010    2 .95265E+01    57.830
BIGSUB  96     2010    2 .44356E+01     0.000
BIGSUB  97     2010    2 .17044E+02     0.000
BIGSUB  98     2010    2 .38880E+02    67.435
BIGSUB  99     2010    2 .10526E+03    40.421
BIGSUB 100     2010    2 .22712E+02    57.830
BIGSUB 101     2010    2 .12029E+02    57.830
BIGSUB 102     2010    2 .20023E+02    63.133
BIGSUB 103     2010    2 .41736E+02    63.133
BIGSUB 104     2010    2 .29717E+02    63.133
BIGSUB 105     2010    2 .20328E+02     0.000
BIGSUB 106     2010    2 .25620E+02    63.133
BIGSUB 107     2010    2 .29696E+02     0.000
BIGSUB 108     2010    2 .12128E+01     0.000
BIGSUB 109     2010    2 .38774E+02     0.000
BIGSUB 110     2010    2 .74938E+02     0.000
BIGSUB 111     2010    2 .29993E+02     0.000
BIGSUB 112     2010    2 .64651E+00     0.000
BIGSUB 113     2010    2 .66414E+02    57.830
BIGSUB 114     2010    2 .38803E+02     0.000
BIGSUB 115     2010    2 .32887E+02     0.000
BIGSUB 116     2010    2 .29806E+02     0.000
BIGSUB 117     2010    2 .81135E+01     0.000
BIGSUB 118     2010    2 .10668E+02     0.000
BIGSUB 119     2010    2 .82472E+02    63.133
BIGSUB 120     2010    2 .83543E+01     0.000
BIGSUB 121     2010    2 .66700E+02     0.000
BIGSUB 122     2010    2 .41534E+02     0.000
BIGSUB 123     2010    2 .24242E+02     0.000
BIGSUB 124     2010    2 .16211E+02     0.000
BIGSUB 125     2010    2 .26587E+02     0.000
BIGSUB 126     2010    2 .65288E+02     0.000
BIGSUB 127     2010    2 .27142E+02     0.000
BIGSUB 128     2010    2 .88441E+02     0.000
BIGSUB 129     2010    2 .57422E+02     0.000
BIGSUB 130     2010    2 .12472E+01     0.000
BIGSUB 131     2010    2 .40099E+02     0.000
BIGSUB 132     2010    2 .73705E+02     0.000
BIGSUB 133     2010    2 .39979E+02     0.000
BIGSUB   1     2010    3 .45854E+02   206.107
BIGSUB   2     2010    3 .86189E+02   204.376
BIGSUB   3     2010    3 .27984E+02   206.107
BIGSUB   4     2010    3 .24648E+02   206.107
BIGSUB   5     2010    3 .27452E+02   190.099
BIGSUB   6     2010    3 .38126E+02   206.107
BIGSUB   7     2010    3 .33075E+00   206.107
BIGSUB   8     2010    3 .26952E+02   206.107
BIGSUB   9     2010    3 .22204E+02   190.099
BIGSUB  10     2010    3 .13462E+02   190.099
BIGSUB  11     2010    3 .22291E+02   206.107
BIGSUB  12     2010    3 .32784E+02   190.099
BIGSUB  13     2010    3 .79636E+01   190.099
BIGSUB  14     2010    3 .22689E+02   190.099
BIGSUB  15     2010    3 .26213E+01   190.099
BIGSUB  16     2010    3 .52920E-01   190.099
BIGSUB  17     2010    3 .33622E+01   190.099
BIGSUB  18     2010    3 .22436E+02   190.099
BIGSUB  19     2010    3 .41798E+02   202.606
BIGSUB  20     2010    3 .45842E+02   248.129
BIGSUB  21     2010    3 .41386E+02   241.466
BIGSUB  22     2010    3 .25137E+02   244.403
BIGSUB  23     2010    3 .79468E+02   190.099
BIGSUB  24     2010    3 .24827E+02   190.099
BIGSUB  25     2010    3 .22920E+02   248.129
BIGSUB  26     2010    3 .44894E+01   248.129
BIGSUB  27     2010    3 .10460E+02   190.099
BIGSUB  28     2010    3 .30092E+02   190.099
BIGSUB  29     2010    3 .10686E+02   202.606
BIGSUB  30     2010    3 .43433E+02   248.129
BIGSUB  31     2010    3 .32131E+02   248.129
BIGSUB  32     2010    3 .32989E+02   201.605
BIGSUB  33     2010    3 .38508E+02   201.605
BIGSUB  34     2010    3 .74614E+02   201.605
BIGSUB  35     2010    3 .10432E+02   202.606
BIGSUB  36     2010    3 .86277E+02   202.606
BIGSUB  37     2010    3 .13750E+02   248.129
BIGSUB  38     2010    3 .66594E+02   248.129
BIGSUB  39     2010    3 .49092E+01   165.586
BIGSUB  40     2010    3 .17745E+02   165.586
BIGSUB  41     2010    3 .19859E+02   165.586
BIGSUB  42     2010    3 .83111E+02   202.606
BIGSUB  43     2010    3 .68870E+02   201.605
BIGSUB  44     2010    3 .43924E+02   165.586
BIGSUB  45     2010    3 .31932E+02   165.586
BIGSUB  46     2010    3 .11068E+02   165.586
BIGSUB  47     2010    3 .75818E+02   248.129
BIGSUB  48     2010    3 .33194E+02   176.092
BIGSUB  49     2010    3 .57024E+02   165.586
BIGSUB  50     2010    3 .12993E+02   165.586
BIGSUB  51     2010    3 .69997E+02   176.092
BIGSUB  52     2010    3 .25723E+02   176.092
BIGSUB  53     2010    3 .28527E+02   176.092
BIGSUB  54     2010    3 .46893E+02   173.090
BIGSUB  55     2010    3 .30643E+02   173.090
BIGSUB  56     2010    3 .94436E+01   165.586
BIGSUB  57     2010    3 .15118E+01   165.586
BIGSUB  58     2010    3 .12948E+01   175.591
BIGSUB  59     2010    3 .33671E+02   176.092
BIGSUB  60     2010    3 .38787E+02   175.591
BIGSUB  61     2010    3 .54657E+02   176.092
BIGSUB  62     2010    3 .76482E+02   175.591
BIGSUB  63     2010    3 .94665E+01   175.591
BIGSUB  64     2010    3 .17570E+02   173.090
BIGSUB  65     2010    3 .39035E+02   173.090
BIGSUB  66     2010    3 .89894E+01   173.090
BIGSUB  67     2010    3 .90405E+00   173.090
BIGSUB  68     2010    3 .17293E+02   173.090
BIGSUB  69     2010    3 .20709E+02   173.090
BIGSUB  70     2010    3 .44265E+02   165.586
BIGSUB  71     2010    3 .12188E+02   175.592
BIGSUB  72     2010    3 .31804E+02   175.591
BIGSUB  73     2010    3 .63116E+01   175.591
BIGSUB  74     2010    3 .12692E+01   173.090
BIGSUB  75     2010    3 .30132E+02   165.586
BIGSUB  76     2010    3 .13600E+01   175.591
BIGSUB  77     2010    3 .25220E+02   175.591
BIGSUB  78     2010    3 .51909E+02   175.591
BIGSUB  79     2010    3 .33231E+02   173.090
BIGSUB  80     2010    3 .28811E+02   165.586
BIGSUB  81     2010    3 .63654E+01   175.591
BIGSUB  82     2010    3 .59182E+00   175.592
BIGSUB  83     2010    3 .47258E+02   161.584
BIGSUB  84     2010    3 .79373E+02   173.090
BIGSUB  85     2010    3 .58331E+02   161.584
BIGSUB  86     2010    3 .29852E+02   175.592
BIGSUB  87     2010    3 .25581E+02   175.592
BIGSUB  88     2010    3 .20477E+02   175.591
BIGSUB  89     2010    3 .22789E+02   173.090
BIGSUB  90     2010    3 .53191E+02   161.584
BIGSUB  91     2010    3 .24741E+02     0.000
BIGSUB  92     2010    3 .56077E+02   161.584
BIGSUB  93     2010    3 .66944E+00   161.584
BIGSUB  94     2010    3 .30369E+02   161.584
BIGSUB  95     2010    3 .95265E+01   161.584
BIGSUB  96     2010    3 .44356E+01     0.000
BIGSUB  97     2010    3 .17044E+02     0.000
BIGSUB  98     2010    3 .38880E+02   175.592
BIGSUB  99     2010    3 .10526E+03   173.090
BIGSUB 100     2010    3 .22712E+02   161.584
BIGSUB 101     2010    3 .12029E+02   161.584
BIGSUB 102     2010    3 .20023E+02   131.068
BIGSUB 103     2010    3 .41736E+02   131.068
BIGSUB 104     2010    3 .29717E+02   131.068
BIGSUB 105     2010    3 .20328E+02     0.000
BIGSUB 106     2010    3 .25620E+02   131.068
BIGSUB 107     2010    3 .29696E+02     0.000
BIGSUB 108     2010    3 .12128E+01     0.000
BIGSUB 109     2010    3 .38774E+02     0.000
BIGSUB 110     2010    3 .74938E+02     0.000
BIGSUB 111     2010    3 .29993E+02     0.000
BIGSUB 112     2010    3 .64651E+00     0.000
BIGSUB 113     2010    3 .66414E+02   161.584
BIGSUB 114     2010    3 .38803E+02     0.000
BIGSUB 115     2010    3 .32887E+02     0.000
BIGSUB 116     2010    3 .29806E+02     0.000
BIGSUB 117     2010    3 .81135E+01     0.000
BIGSUB 118     2010    3 .10668E+02     0.000
BIGSUB 119     2010    3 .82472E+02   131.068
BIGSUB 120     2010    3 .83543E+01     0.000
BIGSUB 121     2010    3 .66700E+02     0.000
BIGSUB 122     2010    3 .41534E+02     0.000
BIGSUB 123     2010    3 .24242E+02     0.000
BIGSUB 124     2010    3 .16211E+02     0.000
BIGSUB 125     2010    3 .26587E+02     0.000
BIGSUB 126     2010    3 .65288E+02     0.000
BIGSUB 127     2010    3 .27142E+02     0.000
BIGSUB 128     2010    3 .88441E+02     0.000
BIGSUB 129     2010    3 .57422E+02     0.000
BIGSUB 130     2010    3 .12472E+01     0.000
BIGSUB 131     2010    3 .40099E+02     0.000
BIGSUB 132     2010    3 .73705E+02     0.000
BIGSUB 133     2010    3 .39979E+02     0.000
BIGSUB   1     2010    4 .45854E+02   197.103
BIGSUB   2     2010    4 .86189E+02   195.447
BIGSUB   3     2010    4 .27984E+02   197.103
BIGSUB   4     2010    4 .24648E+02   197.103
BIGSUB   5     2010    4 .27452E+02   184.596
BIGSUB   6     2010    4 .38126E+02   197.103
BIGSUB   7     2010    4 .33075E+00   197.103
BIGSUB   8     2010    4 .26952E+02   197.103
BIGSUB   9     2010    4 .22204E+02   184.596
BIGSUB  10     2010    4 .13462E+02   184.596
BIGSUB  11     2010    4 .22291E+02   197.103
BIGSUB  12     2010    4 .32784E+02   184.596
BIGSUB  13     2010    4 .79636E+01   184.596
BIGSUB  14     2010    4 .22689E+02   184.596
BIGSUB  15     2010    4 .26213E+01   184.596
BIGSUB  16     2010    4 .52920E-01   184.596
BIGSUB  17     2010    4 .33622E+01   184.596
BIGSUB  18     2010    4 .22436E+02   184.596
BIGSUB  19     2010    4 .41798E+02   194.601
BIGSUB  20     2010    4 .45842E+02   214.112
BIGSUB  21     2010    4 .41386E+02   208.362
BIGSUB  22     2010    4 .25137E+02   210.896
BIGSUB  23     2010    4 .79468E+02   184.596
BIGSUB  24     2010    4 .24827E+02   184.596
BIGSUB  25     2010    4 .22920E+02   214.112
BIGSUB  26     2010    4 .44894E+01   214.112
BIGSUB  27     2010    4 .10460E+02   184.596
BIGSUB  28     2010    4 .30092E+02   184.596
BIGSUB  29     2010    4 .10686E+02   194.601
BIGSUB  30     2010    4 .43433E+02   214.112
BIGSUB  31     2010    4 .32131E+02   214.112
BIGSUB  32     2010    4 .32989E+02   225.618
BIGSUB  33     2010    4 .38508E+02   225.618
BIGSUB  34     2010    4 .74614E+02   225.618
BIGSUB  35     2010    4 .10432E+02   194.601
BIGSUB  36     2010    4 .86277E+02   194.601
BIGSUB  37     2010    4 .13750E+02   214.112
BIGSUB  38     2010    4 .66594E+02   214.112
BIGSUB  39     2010    4 .49092E+01   191.100
BIGSUB  40     2010    4 .17745E+02   191.100
BIGSUB  41     2010    4 .19859E+02   191.100
BIGSUB  42     2010    4 .83111E+02   194.601
BIGSUB  43     2010    4 .68870E+02   225.618
BIGSUB  44     2010    4 .43924E+02   191.100
BIGSUB  45     2010    4 .31932E+02   191.100
BIGSUB  46     2010    4 .11068E+02   191.100
BIGSUB  47     2010    4 .75818E+02   214.112
BIGSUB  48     2010    4 .33194E+02   196.602
BIGSUB  49     2010    4 .57024E+02   191.100
BIGSUB  50     2010    4 .12993E+02   191.100
BIGSUB  51     2010    4 .69997E+02   196.602
BIGSUB  52     2010    4 .25723E+02   196.602
BIGSUB  53     2010    4 .28527E+02   196.603
BIGSUB  54     2010    4 .46893E+02   199.604
BIGSUB  55     2010    4 .30643E+02   199.604
BIGSUB  56     2010    4 .94436E+01   191.100
BIGSUB  57     2010    4 .15118E+01   191.100
BIGSUB  58     2010    4 .12948E+01   196.602
BIGSUB  59     2010    4 .33671E+02   196.603
BIGSUB  60     2010    4 .38787E+02   196.602
BIGSUB  61     2010    4 .54657E+02   196.602
BIGSUB  62     2010    4 .76482E+02   196.602
BIGSUB  63     2010    4 .94665E+01   196.602
BIGSUB  64     2010    4 .17570E+02   199.604
BIGSUB  65     2010    4 .39035E+02   199.604
BIGSUB  66     2010    4 .89894E+01   199.604
BIGSUB  67     2010    4 .90405E+00   199.604
BIGSUB  68     2010    4 .17293E+02   199.604
BIGSUB  69     2010    4 .20709E+02   199.604
BIGSUB  70     2010    4 .44265E+02   191.100
BIGSUB  71     2010    4 .12188E+02   196.603
BIGSUB  72     2010    4 .31804E+02   196.602
BIGSUB  73     2010    4 .63116E+01   196.602
BIGSUB  74     2010    4 .12692E+01   199.604
BIGSUB  75     2010    4 .30132E+02   191.100
BIGSUB  76     2010    4 .13600E+01   196.602
BIGSUB  77     2010    4 .25220E+02   196.602
BIGSUB  78     2010    4 .51909E+02   196.602
BIGSUB  79     2010    4 .33231E+02   199.604
BIGSUB  80     2010    4 .28811E+02   191.100
BIGSUB  81     2010    4 .63654E+01   196.602
BIGSUB  82     2010    4 .59182E+00   196.602
BIGSUB  83     2010    4 .47258E+02   214.612
BIGSUB  84     2010    4 .79373E+02   199.604
BIGSUB  85     2010    4 .58331E+02   214.612
BIGSUB  86     2010    4 .29852E+02   196.602
BIGSUB  87     2010    4 .25581E+02   196.603
BIGSUB  88     2010    4 .20477E+02   196.602
BIGSUB  89     2010    4 .22789E+02   199.604
BIGSUB  90     2010    4 .53191E+02   214.612
BIGSUB  91     2010    4 .24741E+02     0.000
BIGSUB  92     2010    4 .56077E+02   214.612
BIGSUB  93     2010    4 .66944E+00   214.612
BIGSUB  94     2010    4 .30369E+02   214.612
BIGSUB  95     2010    4 .95265E+01   214.612
BIGSUB  96     2010    4 .44356E+01     0.000
BIGSUB  97     2010    4 .17044E+02     0.000
BIGSUB  98     2010    4 .38880E+02   196.602
BIGSUB  99     2010    4 .10526E+03   199.604
BIGSUB 100     2010    4 .22712E+02   214.612
BIGSUB 101     2010    4 .12029E+02   214.612
BIGSUB 102     2010    4 .20023E+02   210.110
BIGSUB 103     2010    4 .41736E+02   210.109
BIGSUB 104     2010    4 .29717E+02   210.110
BIGSUB 105     2010    4 .20328E+02     0.000
BIGSUB 106     2010    4 .25620E+02   210.110
BIGSUB 107     2010    4 .29696E+02     0.000
BIGSUB 108     2010    4 .12128E+01     0.000
BIGSUB 109     2010    4 .38774E+02     0.000
BIGSUB 110     2010    4 .74938E+02     0.000
BIGSUB 111     2010    4 .29993E+02     0.000
BIGSUB 112     2010    4 .64651E+00     0.000
BIGSUB 113     2010    4 .66414E+02   214.612
BIGSUB 114     2010    4 .38803E+02     0.000
BIGSUB 115     2010    4 .32887E+02     0.000
BIGSUB 116     2010    4 .29806E+02     0.000
BIGSUB 117     2010    4 .81135E+01     0.000
BIGSUB 118     2010    4 .10668E+02     0.000
BIGSUB 119     2010    4 .82472E+02   210.109
BIGSUB 120     2010    4 .83543E+01     0.000
BIGSUB 121     2010    4 .66700E+02     0.000
BIGSUB 122     2010    4 .41534E+02     0.000
BIGSUB 123     2010    4 .24242E+02     0.000
BIGSUB 124     2010    4 .16211E+02     0.000
BIGSUB 125     2010    4 .26587E+02     0.000
BIGSUB 126     2010    4 .65288E+02     0.000
BIGSUB 127     2010    4 .27142E+02     0.000
BIGSUB 128     2010    4 .88441E+02     0.000
BIGSUB 129     2010    4 .57422E+02     0.000
BIGSUB 130     2010    4 .12472E+01     0.000
BIGSUB 131     2010    4 .40099E+02     0.000
BIGSUB 132     2010    4 .73705E+02     0.000
BIGSUB 133     2010    4 .39979E+02     0.000
BIGSUB   1     2010    5 .45854E+02   329.172
BIGSUB   2     2010    5 .86189E+02   326.406
BIGSUB   3     2010    5 .27984E+02   329.172
BIGSUB   4     2010    5 .24648E+02   329.172
BIGSUB   5     2010    5 .27452E+02   333.174
BIGSUB   6     2010    5 .38126E+02   329.172
BIGSUB   7     2010    5 .33075E+00   329.172
BIGSUB   8     2010    5 .26952E+02   329.172
BIGSUB   9     2010    5 .22204E+02   333.174
BIGSUB  10     2010    5 .13462E+02   333.174
BIGSUB  11     2010    5 .22291E+02   329.172
BIGSUB  12     2010    5 .32784E+02   333.174
BIGSUB  13     2010    5 .79636E+01   333.174
BIGSUB  14     2010    5 .22689E+02   333.174
BIGSUB  15     2010    5 .26213E+01   333.174
BIGSUB  16     2010    5 .52920E-01   333.174
BIGSUB  17     2010    5 .33622E+01   333.174
BIGSUB  18     2010    5 .22436E+02   333.174
BIGSUB  19     2010    5 .41798E+02   347.681
BIGSUB  20     2010    5 .45842E+02   384.701
BIGSUB  21     2010    5 .41386E+02   374.370
BIGSUB  22     2010    5 .25137E+02   378.923
BIGSUB  23     2010    5 .79468E+02   333.174
BIGSUB  24     2010    5 .24827E+02   333.174
BIGSUB  25     2010    5 .22920E+02   384.701
BIGSUB  26     2010    5 .44894E+01   384.701
BIGSUB  27     2010    5 .10460E+02   333.174
BIGSUB  28     2010    5 .30092E+02   333.174
BIGSUB  29     2010    5 .10686E+02   347.681
BIGSUB  30     2010    5 .43433E+02   384.700
BIGSUB  31     2010    5 .32131E+02   384.700
BIGSUB  32     2010    5 .32989E+02   369.693
BIGSUB  33     2010    5 .38508E+02   369.693
BIGSUB  34     2010    5 .74614E+02   369.693
BIGSUB  35     2010    5 .10432E+02   347.681
BIGSUB  36     2010    5 .86277E+02   347.681
BIGSUB  37     2010    5 .13750E+02   384.700
BIGSUB  38     2010    5 .66594E+02   384.701
BIGSUB  39     2010    5 .49092E+01   331.173
BIGSUB  40     2010    5 .17745E+02   331.173
BIGSUB  41     2010    5 .19859E+02   331.173
BIGSUB  42     2010    5 .83111E+02   347.681
BIGSUB  43     2010    5 .68870E+02   369.693
BIGSUB  44     2010    5 .43924E+02   331.173
BIGSUB  45     2010    5 .31932E+02   331.173
BIGSUB  46     2010    5 .11068E+02   331.173
BIGSUB  47     2010    5 .75818E+02   384.701
BIGSUB  48     2010    5 .33194E+02   334.674
BIGSUB  49     2010    5 .57024E+02   331.172
BIGSUB  50     2010    5 .12993E+02   331.173
BIGSUB  51     2010    5 .69997E+02   334.674
BIGSUB  52     2010    5 .25723E+02   334.674
BIGSUB  53     2010    5 .28527E+02   334.674
BIGSUB  54     2010    5 .46893E+02   318.166
BIGSUB  55     2010    5 .30643E+02   318.166
BIGSUB  56     2010    5 .94436E+01   331.173
BIGSUB  57     2010    5 .15118E+01   331.173
BIGSUB  58     2010    5 .12948E+01   323.168
BIGSUB  59     2010    5 .33671E+02   334.674
BIGSUB  60     2010    5 .38787E+02   323.168
BIGSUB  61     2010    5 .54657E+02   334.674
BIGSUB  62     2010    5 .76482E+02   323.168
BIGSUB  63     2010    5 .94665E+01   323.168
BIGSUB  64     2010    5 .17570E+02   318.166
BIGSUB  65     2010    5 .39035E+02   318.166
BIGSUB  66     2010    5 .89894E+01   318.166
BIGSUB  67     2010    5 .90405E+00   318.166
BIGSUB  68     2010    5 .17293E+02   318.166
BIGSUB  69     2010    5 .20709E+02   318.166
BIGSUB  70     2010    5 .44265E+02   331.172
BIGSUB  71     2010    5 .12188E+02   323.168
BIGSUB  72     2010    5 .31804E+02   323.168
BIGSUB  73     2010    5 .63116E+01   323.168
BIGSUB  74     2010    5 .12692E+01   318.166
BIGSUB  75     2010    5 .30132E+02   331.173
BIGSUB  76     2010    5 .13600E+01   323.168
BIGSUB  77     2010    5 .25220E+02   323.168
BIGSUB  78     2010    5 .51909E+02   323.168
BIGSUB  79     2010    5 .33231E+02   318.166
BIGSUB  80     2010    5 .28811E+02   331.173
BIGSUB  81     2010    5 .63654E+01   323.168
BIGSUB  82     2010    5 .59182E+00   323.168
BIGSUB  83     2010    5 .47258E+02   350.683
BIGSUB  84     2010    5 .79373E+02   318.166
BIGSUB  85     2010    5 .58331E+02   350.683
BIGSUB  86     2010    5 .29852E+02   323.168
BIGSUB  87     2010    5 .25581E+02   323.168
BIGSUB  88     2010    5 .20477E+02   323.168
BIGSUB  89     2010    5 .22789E+02   318.166
BIGSUB  90     2010    5 .53191E+02   350.683
BIGSUB  91     2010    5 .24741E+02     0.000
BIGSUB  92     2010    5 .56077E+02   350.683
BIGSUB  93     2010    5 .66944E+00   350.683
BIGSUB  94     2010    5 .30369E+02   350.683
BIGSUB  95     2010    5 .95265E+01   350.683
BIGSUB  96     2010    5 .44356E+01     0.000
BIGSUB  97     2010    5 .17044E+02     0.000
BIGSUB  98     2010    5 .38880E+02   323.168
BIGSUB  99     2010    5 .10526E+03   318.166
BIGSUB 100     2010    5 .22712E+02   350.683
BIGSUB 101     2010    5 .12029E+02   350.683
BIGSUB 102     2010    5 .20023E+02   351.683
BIGSUB 103     2010    5 .41736E+02   351.683
BIGSUB 104     2010    5 .29717E+02   351.683
BIGSUB 105     2010    5 .20328E+02     0.000
BIGSUB 106     2010    5 .25620E+02   351.683
BIGSUB 107     2010    5 .29696E+02     0.000
BIGSUB 108     2010    5 .12128E+01     0.000
BIGSUB 109     2010    5 .38774E+02     0.000
BIGSUB 110     2010    5 .74938E+02     0.000
BIGSUB 111     2010    5 .29993E+02     0.000
BIGSUB 112     2010    5 .64651E+00     0.000
BIGSUB 113     2010    5 .66414E+02   350.683
BIGSUB 114     2010    5 .38803E+02     0.000
BIGSUB 115     2010    5 .32887E+02     0.000
BIGSUB 116     2010    5 .29806E+02     0.000
BIGSUB 117     2010    5 .81135E+01     0.000
BIGSUB 118     2010    5 .10668E+02     0.000
BIGSUB 119     2010    5 .82472E+02   351.683
BIGSUB 120     2010    5 .83543E+01     0.000
BIGSUB 121     2010    5 .66700E+02     0.000
BIGSUB 122     2010    5 .41534E+02     0.000
BIGSUB 123     2010    5 .24242E+02     0.000
BIGSUB 124     2010    5 .16211E+02     0.000
BIGSUB 125     2010    5 .26587E+02     0.000
BIGSUB 126     2010    5 .65288E+02     0.000
BIGSUB 127     2010    5 .27142E+02     0.000
BIGSUB 128     2010    5 .88441E+02     0.000
BIGSUB 129     2010    5 .57422E+02     0.000
BIGSUB 130     2010    5 .12472E+01     0.000
BIGSUB 131     2010    5 .40099E+02     0.000
BIGSUB 132     2010    5 .73705E+02     0.000
BIGSUB 133     2010    5 .39979E+02     0.000
BIGSUB   1     2010    6 .45854E+02   325.169
BIGSUB   2     2010    6 .86189E+02   322.438
BIGSUB   3     2010    6 .27984E+02   325.169
BIGSUB   4     2010    6 .24648E+02   325.169
BIGSUB   5     2010    6 .27452E+02   321.167
BIGSUB   6     2010    6 .38126E+02   325.169
BIGSUB   7     2010    6 .33075E+00   325.169
BIGSUB   8     2010    6 .26952E+02   325.169
BIGSUB   9     2010    6 .22204E+02   321.167
BIGSUB  10     2010    6 .13462E+02   321.167
BIGSUB  11     2010    6 .22291E+02   325.169
BIGSUB  12     2010    6 .32784E+02   321.167
BIGSUB  13     2010    6 .79636E+01   321.167
BIGSUB  14     2010    6 .22689E+02   321.167
BIGSUB  15     2010    6 .26213E+01   321.167
BIGSUB  16     2010    6 .52920E-01   321.167
BIGSUB  17     2010    6 .33622E+01   321.167
BIGSUB  18     2010    6 .22436E+02   321.167
BIGSUB  19     2010    6 .41798E+02   352.684
BIGSUB  20     2010    6 .45842E+02   406.712
BIGSUB  21     2010    6 .41386E+02   395.791
BIGSUB  22     2010    6 .25137E+02   400.604
BIGSUB  23     2010    6 .79468E+02   321.167
BIGSUB  24     2010    6 .24827E+02   321.167
BIGSUB  25     2010    6 .22920E+02   406.712
BIGSUB  26     2010    6 .44894E+01   406.712
BIGSUB  27     2010    6 .10460E+02   321.167
BIGSUB  28     2010    6 .30092E+02   321.167
BIGSUB  29     2010    6 .10686E+02   352.684
BIGSUB  30     2010    6 .43433E+02   406.712
BIGSUB  31     2010    6 .32131E+02   406.712
BIGSUB  32     2010    6 .32989E+02   422.220
BIGSUB  33     2010    6 .38508E+02   422.220
BIGSUB  34     2010    6 .74614E+02   422.220
BIGSUB  35     2010    6 .10432E+02   352.684
BIGSUB  36     2010    6 .86277E+02   352.684
BIGSUB  37     2010    6 .13750E+02   406.712
BIGSUB  38     2010    6 .66594E+02   406.712
BIGSUB  39     2010    6 .49092E+01   335.175
BIGSUB  40     2010    6 .17745E+02   335.175
BIGSUB  41     2010    6 .19859E+02   335.175
BIGSUB  42     2010    6 .83111E+02   352.684
BIGSUB  43     2010    6 .68870E+02   422.220
BIGSUB  44     2010    6 .43924E+02   335.175
BIGSUB  45     2010    6 .31932E+02   335.175
BIGSUB  46     2010    6 .11068E+02   335.175
BIGSUB  47     2010    6 .75818E+02   406.712
BIGSUB  48     2010    6 .33194E+02   327.671
BIGSUB  49     2010    6 .57024E+02   335.175
BIGSUB  50     2010    6 .12993E+02   335.175
BIGSUB  51     2010    6 .69997E+02   327.671
BIGSUB  52     2010    6 .25723E+02   327.671
BIGSUB  53     2010    6 .28527E+02   327.671
BIGSUB  54     2010    6 .46893E+02   297.655
BIGSUB  55     2010    6 .30643E+02   297.655
BIGSUB  56     2010    6 .94436E+01   335.175
BIGSUB  57     2010    6 .15118E+01   335.175
BIGSUB  58     2010    6 .12948E+01   290.151
BIGSUB  59     2010    6 .33671E+02   327.671
BIGSUB  60     2010    6 .38787E+02   290.151
BIGSUB  61     2010    6 .54657E+02   327.671
BIGSUB  62     2010    6 .76482E+02   290.151
BIGSUB  63     2010    6 .94665E+01   290.151
BIGSUB  64     2010    6 .17570E+02   297.655
BIGSUB  65     2010    6 .39035E+02   297.655
BIGSUB  66     2010    6 .89894E+01   297.655
BIGSUB  67     2010    6 .90405E+00   297.655
BIGSUB  68     2010    6 .17293E+02   297.655
BIGSUB  69     2010    6 .20709E+02   297.655
BIGSUB  70     2010    6 .44265E+02   335.175
BIGSUB  71     2010    6 .12188E+02   290.151
BIGSUB  72     2010    6 .31804E+02   290.151
BIGSUB  73     2010    6 .63116E+01   290.151
BIGSUB  74     2010    6 .12692E+01   297.655
BIGSUB  75     2010    6 .30132E+02   335.175
BIGSUB  76     2010    6 .13600E+01   290.151
BIGSUB  77     2010    6 .25220E+02   290.151
BIGSUB  78     2010    6 .51909E+02   290.151
BIGSUB  79     2010    6 .33231E+02   297.655
BIGSUB  80     2010    6 .28811E+02   335.175
BIGSUB  81     2010    6 .63654E+01   290.151
BIGSUB  82     2010    6 .59182E+00   290.151
BIGSUB  83     2010    6 .47258E+02   264.638
BIGSUB  84     2010    6 .79373E+02   297.655
BIGSUB  85     2010    6 .58331E+02   264.638
BIGSUB  86     2010    6 .29852E+02   290.151
BIGSUB  87     2010    6 .25581E+02   290.151
BIGSUB  88     2010    6 .20477E+02   290.151
BIGSUB  89     2010    6 .22789E+02   297.655
BIGSUB  90     2010    6 .53191E+02   264.638
BIGSUB  91     2010    6 .24741E+02     0.000
BIGSUB  92     2010    6 .56077E+02   264.638
BIGSUB  93     2010    6 .66944E+00   264.638
BIGSUB  94     2010    6 .30369E+02   264.638
BIGSUB  95     2010    6 .95265E+01   264.638
BIGSUB  96     2010    6 .44356E+01     0.000
BIGSUB  97     2010    6 .17044E+02     0.000
BIGSUB  98     2010    6 .38880E+02   290.151
BIGSUB  99     2010    6 .10526E+03   297.655
BIGSUB 100     2010    6 .22712E+02   264.638
BIGSUB 101     2010    6 .12029E+02   264.638
BIGSUB 102     2010    6 .20023E+02   256.133
BIGSUB 103     2010    6 .41736E+02   256.133
BIGSUB 104     2010    6 .29717E+02   256.134
BIGSUB 105     2010    6 .20328E+02     0.000
BIGSUB 106     2010    6 .25620E+02   256.134
BIGSUB 107     2010    6 .29696E+02     0.000
BIGSUB 108     2010    6 .12128E+01     0.000
BIGSUB 109     2010    6 .38774E+02     0.000
BIGSUB 110     2010    6 .74938E+02     0.000
BIGSUB 111     2010    6 .29993E+02     0.000
BIGSUB 112     2010    6 .64651E+00     0.000
BIGSUB 113     2010    6 .66414E+02   264.638
BIGSUB 114     2010    6 .38803E+02     0.000
BIGSUB 115     2010    6 .32887E+02     0.000
BIGSUB 116     2010    6 .29806E+02     0.000
BIGSUB 117     2010    6 .81135E+01     0.000
BIGSUB 118     2010    6 .10668E+02     0.000
BIGSUB 119     2010    6 .82472E+02   256.133
BIGSUB 120     2010    6 .83543E+01     0.000
BIGSUB 121     2010    6 .66700E+02     0.000
BIGSUB 122     2010    6 .41534E+02     0.000
BIGSUB 123     2010    6 .24242E+02     0.000
BIGSUB 124     2010    6 .16211E+02     0.000
BIGSUB 125     2010    6 .26587E+02     0.000
BIGSUB 126     2010    6 .65288E+02     0.000
BIGSUB 127     2010    6 .27142E+02     0.000
BIGSUB 128     2010    6 .88441E+02     0.000
BIGSUB 129     2010    6 .57422E+02     0.000
BIGSUB 130     2010    6 .12472E+01     0.000
BIGSUB 131     2010    6 .40099E+02     0.000
BIGSUB 132     2010    6 .73705E+02     0.000
BIGSUB 133     2010    6 .39979E+02     0.000
BIGSUB   1     2010    7 .45854E+02    96.050
BIGSUB   2     2010    7 .86189E+02    95.243
BIGSUB   3     2010    7 .27984E+02    96.050
BIGSUB   4     2010    7 .24648E+02    96.050
BIGSUB   5     2010    7 .27452E+02    96.050
BIGSUB   6     2010    7 .38126E+02    96.050
BIGSUB   7     2010    7 .33075E+00    96.050
BIGSUB   8     2010    7 .26952E+02    96.050
BIGSUB   9     2010    7 .22204E+02    96.050
BIGSUB  10     2010    7 .13462E+02    96.050
BIGSUB  11     2010    7 .22291E+02    96.050
BIGSUB  12     2010    7 .32784E+02    96.050
BIGSUB  13     2010    7 .79636E+01    96.050
BIGSUB  14     2010    7 .22689E+02    96.050
BIGSUB  15     2010    7 .26213E+01    96.050
BIGSUB  16     2010    7 .52920E-01    96.050
BIGSUB  17     2010    7 .33622E+01    96.050
BIGSUB  18     2010    7 .22436E+02    96.050
BIGSUB  19     2010    7 .41798E+02    51.527
BIGSUB  20     2010    7 .45842E+02   104.555
BIGSUB  21     2010    7 .41386E+02   101.747
BIGSUB  22     2010    7 .25137E+02   102.984
BIGSUB  23     2010    7 .79468E+02    96.050
BIGSUB  24     2010    7 .24827E+02    96.050
BIGSUB  25     2010    7 .22920E+02   104.555
BIGSUB  26     2010    7 .44894E+01   104.554
BIGSUB  27     2010    7 .10460E+02    96.050
BIGSUB  28     2010    7 .30092E+02    96.050
BIGSUB  29     2010    7 .10686E+02    51.527
BIGSUB  30     2010    7 .43433E+02   104.554
BIGSUB  31     2010    7 .32131E+02   104.554
BIGSUB  32     2010    7 .32989E+02   173.590
BIGSUB  33     2010    7 .38508E+02   173.590
BIGSUB  34     2010    7 .74614E+02   173.590
BIGSUB  35     2010    7 .10432E+02    51.527
BIGSUB  36     2010    7 .86277E+02    51.527
BIGSUB  37     2010    7 .13750E+02   104.554
BIGSUB  38     2010    7 .66594E+02   104.555
BIGSUB  39     2010    7 .49092E+01    81.543
BIGSUB  40     2010    7 .17745E+02    81.542
BIGSUB  41     2010    7 .19859E+02    81.542
BIGSUB  42     2010    7 .83111E+02    51.527
BIGSUB  43     2010    7 .68870E+02   173.590
BIGSUB  44     2010    7 .43924E+02    81.543
BIGSUB  45     2010    7 .31932E+02    81.542
BIGSUB  46     2010    7 .11068E+02    81.542
BIGSUB  47     2010    7 .75818E+02   104.555
BIGSUB  48     2010    7 .33194E+02   115.560
BIGSUB  49     2010    7 .57024E+02    81.542
BIGSUB  50     2010    7 .12993E+02    81.542
BIGSUB  51     2010    7 .69997E+02   115.560
BIGSUB  52     2010    7 .25723E+02   115.560
BIGSUB  53     2010    7 .28527E+02   115.560
BIGSUB  54     2010    7 .46893E+02   102.053
BIGSUB  55     2010    7 .30643E+02   102.053
BIGSUB  56     2010    7 .94436E+01    81.542
BIGSUB  57     2010    7 .15118E+01    81.542
BIGSUB  58     2010    7 .12948E+01   106.055
BIGSUB  59     2010    7 .33671E+02   115.560
BIGSUB  60     2010    7 .38787E+02   106.055
BIGSUB  61     2010    7 .54657E+02   115.560
BIGSUB  62     2010    7 .76482E+02   106.055
BIGSUB  63     2010    7 .94665E+01   106.055
BIGSUB  64     2010    7 .17570E+02   102.053
BIGSUB  65     2010    7 .39035E+02   102.053
BIGSUB  66     2010    7 .89894E+01   102.053
BIGSUB  67     2010    7 .90405E+00   102.053
BIGSUB  68     2010    7 .17293E+02   102.053
BIGSUB  69     2010    7 .20709E+02   102.053
BIGSUB  70     2010    7 .44265E+02    81.542
BIGSUB  71     2010    7 .12188E+02   106.055
BIGSUB  72     2010    7 .31804E+02   106.055
BIGSUB  73     2010    7 .63116E+01   106.055
BIGSUB  74     2010    7 .12692E+01   102.053
BIGSUB  75     2010    7 .30132E+02    81.542
BIGSUB  76     2010    7 .13600E+01   106.055
BIGSUB  77     2010    7 .25220E+02   106.055
BIGSUB  78     2010    7 .51909E+02   106.055
BIGSUB  79     2010    7 .33231E+02   102.053
BIGSUB  80     2010    7 .28811E+02    81.542
BIGSUB  81     2010    7 .63654E+01   106.055
BIGSUB  82     2010    7 .59182E+00   106.055
BIGSUB  83     2010    7 .47258E+02    63.533
BIGSUB  84     2010    7 .79373E+02   102.053
BIGSUB  85     2010    7 .58331E+02    63.533
BIGSUB  86     2010    7 .29852E+02   106.055
BIGSUB  87     2010    7 .25581E+02   106.055
BIGSUB  88     2010    7 .20477E+02   106.055
BIGSUB  89     2010    7 .22789E+02   102.053
BIGSUB  90     2010    7 .53191E+02    63.533
BIGSUB  91     2010    7 .24741E+02     0.000
BIGSUB  92     2010    7 .56077E+02    63.533
BIGSUB  93     2010    7 .66944E+00    63.533
BIGSUB  94     2010    7 .30369E+02    63.533
BIGSUB  95     2010    7 .95265E+01    63.533
BIGSUB  96     2010    7 .44356E+01     0.000
BIGSUB  97     2010    7 .17044E+02     0.000
BIGSUB  98     2010    7 .38880E+02   106.055
BIGSUB  99     2010    7 .10526E+03   102.053
BIGSUB 100     2010    7 .22712E+02    63.533
BIGSUB 101     2010    7 .12029E+02    63.533
BIGSUB 102     2010    7 .20023E+02    61.032
BIGSUB 103     2010    7 .41736E+02    61.032
BIGSUB 104     2010    7 .29717E+02    61.032
BIGSUB 105     2010    7 .20328E+02     0.000
BIGSUB 106     2010    7 .25620E+02    61.032
BIGSUB 107     2010    7 .29696E+02     0.000
BIGSUB 108     2010    7 .12128E+01     0.000
BIGSUB 109     2010    7 .38774E+02     0.000
BIGSUB 110     2010    7 .74938E+02     0.000
BIGSUB 111     2010    7 .29993E+02     0.000
BIGSUB 112     2010    7 .64651E+00     0.000
BIGSUB 113     2010    7 .66414E+02    63.533
BIGSUB 114     2010    7 .38803E+02     0.000
BIGSUB 115     2010    7 .32887E+02     0.000
BIGSUB 116     2010    7 .29806E+02     0.000
BIGSUB 117     2010    7 .81135E+01     0.000
BIGSUB 118     2010    7 .10668E+02     0.000
BIGSUB 119     2010    7 .82472E+02    61.032
BIGSUB 120     2010    7 .83543E+01     0.000
BIGSUB 121     2010    7 .66700E+02     0.000
BIGSUB 122     2010    7 .41534E+02     0.000
BIGSUB 123     2010    7 .24242E+02     0.000
BIGSUB 124     2010    7 .16211E+02     0.000
BIGSUB 125     2010    7 .26587E+02     0.000
BIGSUB 126     2010    7 .65288E+02     0.000
BIGSUB 127     2010    7 .27142E+02     0.000
BIGSUB 128     2010    7 .88441E+02     0.000
BIGSUB 129     2010    7 .57422E+02     0.000
BIGSUB 130     2010    7 .12472E+01     0.000
BIGSUB 131     2010    7 .40099E+02     0.000
BIGSUB 132     2010    7 .73705E+02     0.000
BIGSUB 133     2010    7 .39979E+02     0.000
BIGSUB   1     2010    8 .45854E+02    84.044
BIGSUB   2     2010    8 .86189E+02    83.338
BIGSUB   3     2010    8 .27984E+02    84.044
BIGSUB   4     2010    8 .24648E+02    84.044
BIGSUB   5     2010    8 .27452E+02   139.072
BIGSUB   6     2010    8 .38126E+02    84.044
BIGSUB   7     2010    8 .33075E+00    84.044
BIGSUB   8     2010    8 .26952E+02    84.044
BIGSUB   9     2010    8 .22204E+02   139.073
BIGSUB  10     2010    8 .13462E+02   139.073
BIGSUB  11     2010    8 .22291E+02    84.044
BIGSUB  12     2010    8 .32784E+02   139.073
BIGSUB  13     2010    8 .79636E+01   139.072
BIGSUB  14     2010    8 .22689E+02   139.072
BIGSUB  15     2010    8 .26213E+01   139.072
BIGSUB  16     2010    8 .52920E-01   139.072
BIGSUB  17     2010    8 .33622E+01   139.073
BIGSUB  18     2010    8 .22436E+02   139.073
BIGSUB  19     2010    8 .41798E+02    53.528
BIGSUB  20     2010    8 .45842E+02   109.557
BIGSUB  21     2010    8 .41386E+02   106.615
BIGSUB  22     2010    8 .25137E+02   107.912
BIGSUB  23     2010    8 .79468E+02   139.072
BIGSUB  24     2010    8 .24827E+02   139.073
BIGSUB  25     2010    8 .22920E+02   109.557
BIGSUB  26     2010    8 .44894E+01   109.557
BIGSUB  27     2010    8 .10460E+02   139.072
BIGSUB  28     2010    8 .30092E+02   139.073
BIGSUB  29     2010    8 .10686E+02    53.528
BIGSUB  30     2010    8 .43433E+02   109.557
BIGSUB  31     2010    8 .32131E+02   109.557
BIGSUB  32     2010    8 .32989E+02   172.590
BIGSUB  33     2010    8 .38508E+02   172.590
BIGSUB  34     2010    8 .74614E+02   172.590
BIGSUB  35     2010    8 .10432E+02    53.528
BIGSUB  36     2010    8 .86277E+02    53.528
BIGSUB  37     2010    8 .13750E+02   109.557
BIGSUB  38     2010    8 .66594E+02   109.557
BIGSUB  39     2010    8 .49092E+01   133.570
BIGSUB  40     2010    8 .17745E+02   133.570
BIGSUB  41     2010    8 .19859E+02   133.570
BIGSUB  42     2010    8 .83111E+02    53.528
BIGSUB  43     2010    8 .68870E+02   172.590
BIGSUB  44     2010    8 .43924E+02   133.570
BIGSUB  45     2010    8 .31932E+02   133.570
BIGSUB  46     2010    8 .11068E+02   133.570
BIGSUB  47     2010    8 .75818E+02   109.557
BIGSUB  48     2010    8 .33194E+02    81.042
BIGSUB  49     2010    8 .57024E+02   133.570
BIGSUB  50     2010    8 .12993E+02   133.570
BIGSUB  51     2010    8 .69997E+02    81.042
BIGSUB  52     2010    8 .25723E+02    81.042
BIGSUB  53     2010    8 .28527E+02    81.042
BIGSUB  54     2010    8 .46893E+02   171.589
BIGSUB  55     2010    8 .30643E+02   171.589
BIGSUB  56     2010    8 .94436E+01   133.570
BIGSUB  57     2010    8 .15118E+01   133.570
BIGSUB  58     2010    8 .12948E+01    97.051
BIGSUB  59     2010    8 .33671E+02    81.042
BIGSUB  60     2010    8 .38787E+02    97.051
BIGSUB  61     2010    8 .54657E+02    81.042
BIGSUB  62     2010    8 .76482E+02    97.051
BIGSUB  63     2010    8 .94665E+01    97.051
BIGSUB  64     2010    8 .17570E+02   171.589
BIGSUB  65     2010    8 .39035E+02   171.589
BIGSUB  66     2010    8 .89894E+01   171.589
BIGSUB  67     2010    8 .90405E+00   171.589
BIGSUB  68     2010    8 .17293E+02   171.589
BIGSUB  69     2010    8 .20709E+02   171.589
BIGSUB  70     2010    8 .44265E+02   133.570
BIGSUB  71     2010    8 .12188E+02    97.051
BIGSUB  72     2010    8 .31804E+02    97.051
BIGSUB  73     2010    8 .63116E+01    97.051
BIGSUB  74     2010    8 .12692E+01   171.589
BIGSUB  75     2010    8 .30132E+02   133.570
BIGSUB  76     2010    8 .13600E+01    97.051
BIGSUB  77     2010    8 .25220E+02    97.051
BIGSUB  78     2010    8 .51909E+02    97.051
BIGSUB  79     2010    8 .33231E+02   171.589
BIGSUB  80     2010    8 .28811E+02   133.570
BIGSUB  81     2010    8 .63654E+01    97.051
BIGSUB  82     2010    8 .59182E+00    97.051
BIGSUB  83     2010    8 .47258E+02   192.100
BIGSUB  84     2010    8 .79373E+02   171.589
BIGSUB  85     2010    8 .58331E+02   192.100
BIGSUB  86     2010    8 .29852E+02    97.051
BIGSUB  87     2010    8 .25581E+02    97.051
BIGSUB  88     2010    8 .20477E+02    97.051
BIGSUB  89     2010    8 .22789E+02   171.589
BIGSUB  90     2010    8 .53191E+02   192.100
BIGSUB  91     2010    8 .24741E+02     0.000
BIGSUB  92     2010    8 .56077E+02   192.100
BIGSUB  93     2010    8 .66944E+00   192.100
BIGSUB  94     2010    8 .30369E+02   192.100
BIGSUB  95     2010    8 .95265E+01   192.100
BIGSUB  96     2010    8 .44356E+01     0.000
BIGSUB  97     2010    8 .17044E+02     0.000
BIGSUB  98     2010    8 .38880E+02    97.051
BIGSUB  99     2010    8 .10526E+03   171.589
BIGSUB 100     2010    8 .22712E+02   192.100
BIGSUB 101     2010    8 .12029E+02   192.100
BIGSUB 102     2010    8 .20023E+02    90.547
BIGSUB 103     2010    8 .41736E+02    90.547
BIGSUB 104     2010    8 .29717E+02    90.547
BIGSUB 105     2010    8 .20328E+02     0.000
BIGSUB 106     2010    8 .25620E+02    90.547
BIGSUB 107     2010    8 .29696E+02     0.000
BIGSUB 108     2010    8 .12128E+01     0.000
BIGSUB 109     2010    8 .38774E+02     0.000
BIGSUB 110     2010    8 .74938E+02     0.000
BIGSUB 111     2010    8 .29993E+02     0.000
BIGSUB 112     2010    8 .64651E+00     0.000
BIGSUB 113     2010    8 .66414E+02   192.100
BIGSUB 114     2010    8 .38803E+02     0.000
BIGSUB 115     2010    8 .32887E+02     0.000
BIGSUB 116     2010    8 .29806E+02     0.000
BIGSUB 117     2010    8 .81135E+01     0.000
BIGSUB 118     2010    8 .10668E+02     0.000
BIGSUB 119     2010    8 .82472E+02    90.547
BIGSUB 120     2010    8 .83543E+01     0.000
BIGSUB 121     2010    8 .66700E+02     0.000
BIGSUB 122     2010    8 .41534E+02     0.000
BIGSUB 123     2010    8 .24242E+02     0.000
BIGSUB 124     2010    8 .16211E+02     0.000
BIGSUB 125     2010    8 .26587E+02     0.000
BIGSUB 126     2010    8 .65288E+02     0.000
BIGSUB 127     2010    8 .27142E+02     0.000
BIGSUB 128     2010    8 .88441E+02     0.000
BIGSUB 129     2010    8 .57422E+02     0.000
BIGSUB 130     2010    8 .12472E+01     0.000
BIGSUB 131     2010    8 .40099E+02     0.000
BIGSUB 132     2010    8 .73705E+02     0.000
BIGSUB 133     2010    8 .39979E+02     0.000
BIGSUB   1     2010    9 .45854E+02   138.072
BIGSUB   2     2010    9 .86189E+02   136.912
BIGSUB   3     2010    9 .27984E+02   138.072
BIGSUB   4     2010    9 .24648E+02   138.072
BIGSUB   5     2010    9 .27452E+02   122.564
BIGSUB   6     2010    9 .38126E+02   138.072
BIGSUB   7     2010    9 .33075E+00   138.072
BIGSUB   8     2010    9 .26952E+02   138.072
BIGSUB   9     2010    9 .22204E+02   122.564
BIGSUB  10     2010    9 .13462E+02   122.564
BIGSUB  11     2010    9 .22291E+02   138.072
BIGSUB  12     2010    9 .32784E+02   122.564
BIGSUB  13     2010    9 .79636E+01   122.564
BIGSUB  14     2010    9 .22689E+02   122.564
BIGSUB  15     2010    9 .26213E+01   122.564
BIGSUB  16     2010    9 .52920E-01   122.564
BIGSUB  17     2010    9 .33622E+01   122.564
BIGSUB  18     2010    9 .22436E+02   122.564
BIGSUB  19     2010    9 .41798E+02   121.063
BIGSUB  20     2010    9 .45842E+02   163.085
BIGSUB  21     2010    9 .41386E+02   158.706
BIGSUB  22     2010    9 .25137E+02   160.636
BIGSUB  23     2010    9 .79468E+02   122.564
BIGSUB  24     2010    9 .24827E+02   122.564
BIGSUB  25     2010    9 .22920E+02   163.085
BIGSUB  26     2010    9 .44894E+01   163.085
BIGSUB  27     2010    9 .10460E+02   122.564
BIGSUB  28     2010    9 .30092E+02   122.564
BIGSUB  29     2010    9 .10686E+02   121.063
BIGSUB  30     2010    9 .43433E+02   163.085
BIGSUB  31     2010    9 .32131E+02   163.085
BIGSUB  32     2010    9 .32989E+02   193.101
BIGSUB  33     2010    9 .38508E+02   193.101
BIGSUB  34     2010    9 .74614E+02   193.101
BIGSUB  35     2010    9 .10432E+02   121.063
BIGSUB  36     2010    9 .86277E+02   121.063
BIGSUB  37     2010    9 .13750E+02   163.085
BIGSUB  38     2010    9 .66594E+02   163.085
BIGSUB  39     2010    9 .49092E+01   132.069
BIGSUB  40     2010    9 .17745E+02   132.069
BIGSUB  41     2010    9 .19859E+02   132.069
BIGSUB  42     2010    9 .83111E+02   121.063
BIGSUB  43     2010    9 .68870E+02   193.101
BIGSUB  44     2010    9 .43924E+02   132.069
BIGSUB  45     2010    9 .31932E+02   132.069
BIGSUB  46     2010    9 .11068E+02   132.069
BIGSUB  47     2010    9 .75818E+02   163.085
BIGSUB  48     2010    9 .33194E+02   157.082
BIGSUB  49     2010    9 .57024E+02   132.069
BIGSUB  50     2010    9 .12993E+02   132.069
BIGSUB  51     2010    9 .69997E+02   157.082
BIGSUB  52     2010    9 .25723E+02   157.082
BIGSUB  53     2010    9 .28527E+02   157.082
BIGSUB  54     2010    9 .46893E+02   187.097
BIGSUB  55     2010    9 .30643E+02   187.098
BIGSUB  56     2010    9 .94436E+01   132.069
BIGSUB  57     2010    9 .15118E+01   132.069
BIGSUB  58     2010    9 .12948E+01   152.580
BIGSUB  59     2010    9 .33671E+02   157.082
BIGSUB  60     2010    9 .38787E+02   152.579
BIGSUB  61     2010    9 .54657E+02   157.082
BIGSUB  62     2010    9 .76482E+02   152.579
BIGSUB  63     2010    9 .94665E+01   152.580
BIGSUB  64     2010    9 .17570E+02   187.097
BIGSUB  65     2010    9 .39035E+02   187.097
BIGSUB  66     2010    9 .89894E+01   187.098
BIGSUB  67     2010    9 .90405E+00   187.098
BIGSUB  68     2010    9 .17293E+02   187.098
BIGSUB  69     2010    9 .20709E+02   187.097
BIGSUB  70     2010    9 .44265E+02   132.069
BIGSUB  71     2010    9 .12188E+02   152.580
BIGSUB  72     2010    9 .31804E+02   152.580
BIGSUB  73     2010    9 .63116E+01   152.580
BIGSUB  74     2010    9 .12692E+01   187.097
BIGSUB  75     2010    9 .30132E+02   132.069
BIGSUB  76     2010    9 .13600E+01   152.579
BIGSUB  77     2010    9 .25220E+02   152.579
BIGSUB  78     2010    9 .51909E+02   152.579
BIGSUB  79     2010    9 .33231E+02   187.097
BIGSUB  80     2010    9 .28811E+02   132.069
BIGSUB  81     2010    9 .63654E+01   152.580
BIGSUB  82     2010    9 .59182E+00   152.580
BIGSUB  83     2010    9 .47258E+02   125.065
BIGSUB  84     2010    9 .79373E+02   187.098
BIGSUB  85     2010    9 .58331E+02   125.065
BIGSUB  86     2010    9 .29852E+02   152.580
BIGSUB  87     2010    9 .25581E+02   152.580
BIGSUB  88     2010    9 .20477E+02   152.580
BIGSUB  89     2010    9 .22789E+02   187.098
BIGSUB  90     2010    9 .53191E+02   125.065
BIGSUB  91     2010    9 .24741E+02     0.000
BIGSUB  92     2010    9 .56077E+02   125.065
BIGSUB  93     2010    9 .66944E+00   125.065
BIGSUB  94     2010    9 .30369E+02   125.065
BIGSUB  95     2010    9 .95265E+01   125.065
BIGSUB  96     2010    9 .44356E+01     0.000
BIGSUB  97     2010    9 .17044E+02     0.000
BIGSUB  98     2010    9 .38880E+02   152.580
BIGSUB  99     2010    9 .10526E+03   187.097
BIGSUB 100     2010    9 .22712E+02   125.065
BIGSUB 101     2010    9 .12029E+02   125.065
BIGSUB 102     2010    9 .20023E+02   175.091
BIGSUB 103     2010    9 .41736E+02   175.091
BIGSUB 104     2010    9 .29717E+02   175.091
BIGSUB 105     2010    9 .20328E+02     0.000
BIGSUB 106     2010    9 .25620E+02   175.091
BIGSUB 107     2010    9 .29696E+02     0.000
BIGSUB 108     2010    9 .12128E+01     0.000
BIGSUB 109     2010    9 .38774E+02     0.000
BIGSUB 110     2010    9 .74938E+02     0.000
BIGSUB 111     2010    9 .29993E+02     0.000
BIGSUB 112     2010    9 .64651E+00     0.000
BIGSUB 113     2010    9 .66414E+02   125.065
BIGSUB 114     2010    9 .38803E+02     0.000
BIGSUB 115     2010    9 .32887E+02     0.000
BIGSUB 116     2010    9 .29806E+02     0.000
BIGSUB 117     2010    9 .81135E+01     0.000
BIGSUB 118     2010    9 .10668E+02     0.000
BIGSUB 119     2010    9 .82472E+02   175.091
BIGSUB 120     2010    9 .83543E+01     0.000
BIGSUB 121     2010    9 .66700E+02     0.000
BIGSUB 122     2010    9 .41534E+02     0.000
BIGSUB 123     2010    9 .24242E+02     0.000
BIGSUB 124     2010    9 .16211E+02     0.000
BIGSUB 125     2010    9 .26587E+02     0.000
BIGSUB 126     2010    9 .65288E+02     0.000
BIGSUB 127     2010    9 .27142E+02     0.000
BIGSUB 128     2010    9 .88441E+02     0.000
BIGSUB 129     2010    9 .57422E+02     0.000
BIGSUB 130     2010    9 .12472E+01     0.000
BIGSUB 131     2010    9 .40099E+02     0.000
BIGSUB 132     2010    9 .73705E+02     0.000
BIGSUB 133     2010    9 .39979E+02     0.000
BIGSUB   1     2010   10 .45854E+02    63.033
BIGSUB   2     2010   10 .86189E+02    62.503
BIGSUB   3     2010   10 .27984E+02    63.033
BIGSUB   4     2010   10 .24648E+02    63.033
BIGSUB   5     2010   10 .27452E+02    72.538
BIGSUB   6     2010   10 .38126E+02    63.033
BIGSUB   7     2010   10 .33075E+00    63.033
BIGSUB   8     2010   10 .26952E+02    63.033
BIGSUB   9     2010   10 .22204E+02    72.538
BIGSUB  10     2010   10 .13462E+02    72.538
BIGSUB  11     2010   10 .22291E+02    63.033
BIGSUB  12     2010   10 .32784E+02    72.538
BIGSUB  13     2010   10 .79636E+01    72.538
BIGSUB  14     2010   10 .22689E+02    72.538
BIGSUB  15     2010   10 .26213E+01    72.538
BIGSUB  16     2010   10 .52920E-01    72.538
BIGSUB  17     2010   10 .33622E+01    72.538
BIGSUB  18     2010   10 .22436E+02    72.538
BIGSUB  19     2010   10 .41798E+02    55.029
BIGSUB  20     2010   10 .45842E+02    50.526
BIGSUB  21     2010   10 .41386E+02    49.170
BIGSUB  22     2010   10 .25137E+02    49.768
BIGSUB  23     2010   10 .79468E+02    72.538
BIGSUB  24     2010   10 .24827E+02    72.538
BIGSUB  25     2010   10 .22920E+02    50.526
BIGSUB  26     2010   10 .44894E+01    50.526
BIGSUB  27     2010   10 .10460E+02    72.538
BIGSUB  28     2010   10 .30092E+02    72.538
BIGSUB  29     2010   10 .10686E+02    55.029
BIGSUB  30     2010   10 .43433E+02    50.526
BIGSUB  31     2010   10 .32131E+02    50.526
BIGSUB  32     2010   10 .32989E+02    65.534
BIGSUB  33     2010   10 .38508E+02    65.534
BIGSUB  34     2010   10 .74614E+02    65.534
BIGSUB  35     2010   10 .10432E+02    55.029
BIGSUB  36     2010   10 .86277E+02    55.029
BIGSUB  37     2010   10 .13750E+02    50.526
BIGSUB  38     2010   10 .66594E+02    50.526
BIGSUB  39     2010   10 .49092E+01    43.022
BIGSUB  40     2010   10 .17745E+02    43.022
BIGSUB  41     2010   10 .19859E+02    43.022
BIGSUB  42     2010   10 .83111E+02    55.029
BIGSUB  43     2010   10 .68870E+02    65.534
BIGSUB  44     2010   10 .43924E+02    43.022
BIGSUB  45     2010   10 .31932E+02    43.022
BIGSUB  46     2010   10 .11068E+02    43.022
BIGSUB  47     2010   10 .75818E+02    50.526
BIGSUB  48     2010   10 .33194E+02    51.027
BIGSUB  49     2010   10 .57024E+02    43.022
BIGSUB  50     2010   10 .12993E+02    43.022
BIGSUB  51     2010   10 .69997E+02    51.027
BIGSUB  52     2010   10 .25723E+02    51.027
BIGSUB  53     2010   10 .28527E+02    51.027
BIGSUB  54     2010   10 .46893E+02    49.026
BIGSUB  55     2010   10 .30643E+02    49.026
BIGSUB  56     2010   10 .94436E+01    43.022
BIGSUB  57     2010   10 .15118E+01    43.022
BIGSUB  58     2010   10 .12948E+01    42.022
BIGSUB  59     2010   10 .33671E+02    51.027
BIGSUB  60     2010   10 .38787E+02    42.022
BIGSUB  61     2010   10 .54657E+02    51.027
BIGSUB  62     2010   10 .76482E+02    42.022
BIGSUB  63     2010   10 .94665E+01    42.022
BIGSUB  64     2010   10 .17570E+02    49.026
BIGSUB  65     2010   10 .39035E+02    49.026
BIGSUB  66     2010   10 .89894E+01    49.026
BIGSUB  67     2010   10 .90405E+00    49.026
BIGSUB  68     2010   10 .17293E+02    49.026
BIGSUB  69     2010   10 .20709E+02    49.026
BIGSUB  70     2010   10 .44265E+02    43.022
BIGSUB  71     2010   10 .12188E+02    42.022
BIGSUB  72     2010   10 .31804E+02    42.022
BIGSUB  73     2010   10 .63116E+01    42.022
BIGSUB  74     2010   10 .12692E+01    49.026
BIGSUB  75     2010   10 .30132E+02    43.022
BIGSUB  76     2010   10 .13600E+01    42.022
BIGSUB  77     2010   10 .25220E+02    42.022
BIGSUB  78     2010   10 .51909E+02    42.022
BIGSUB  79     2010   10 .33231E+02    49.026
BIGSUB  80     2010   10 .28811E+02    43.022
BIGSUB  81     2010   10 .63654E+01    42.022
BIGSUB  82     2010   10 .59182E+00    42.022
BIGSUB  83     2010   10 .47258E+02    49.026
BIGSUB  84     2010   10 .79373E+02    49.026
BIGSUB  85     2010   10 .58331E+02    49.026
BIGSUB  86     2010   10 .29852E+02    42.022
BIGSUB  87     2010   10 .25581E+02    42.022
BIGSUB  88     2010   10 .20477E+02    42.022
BIGSUB  89     2010   10 .22789E+02    49.026
BIGSUB  90     2010   10 .53191E+02    49.026
BIGSUB  91     2010   10 .24741E+02     0.000
BIGSUB  92     2010   10 .56077E+02    49.026
BIGSUB  93     2010   10 .66944E+00    49.026
BIGSUB  94     2010   10 .30369E+02    49.026
BIGSUB  95     2010   10 .95265E+01    49.026
BIGSUB  96     2010   10 .44356E+01     0.000
BIGSUB  97     2010   10 .17044E+02     0.000
BIGSUB  98     2010   10 .38880E+02    42.022
BIGSUB  99     2010   10 .10526E+03    49.026
BIGSUB 100     2010   10 .22712E+02    49.026
BIGSUB 101     2010   10 .12029E+02    49.026
BIGSUB 102     2010   10 .20023E+02    43.022
BIGSUB 103     2010   10 .41736E+02    43.022
BIGSUB 104     2010   10 .29717E+02    43.022
BIGSUB 105     2010   10 .20328E+02     0.000
BIGSUB 106     2010   10 .25620E+02    43.022
BIGSUB 107     2010   10 .29696E+02     0.000
BIGSUB 108     2010   10 .12128E+01     0.000
BIGSUB 109     2010   10 .38774E+02     0.000
BIGSUB 110     2010   10 .74938E+02     0.000
BIGSUB 111     2010   10 .29993E+02     0.000
BIGSUB 112     2010   10 .64651E+00     0.000
BIGSUB 113     2010   10 .66414E+02    49.026
BIGSUB 114     2010   10 .38803E+02     0.000
BIGSUB 115     2010   10 .32887E+02     0.000
BIGSUB 116     2010   10 .29806E+02     0.000
BIGSUB 117     2010   10 .81135E+01     0.000
BIGSUB 118     2010   10 .10668E+02     0.000
BIGSUB 119     2010   10 .82472E+02    43.022
BIGSUB 120     2010   10 .83543E+01     0.000
BIGSUB 121     2010   10 .66700E+02     0.000
BIGSUB 122     2010   10 .41534E+02     0.000
BIGSUB 123     2010   10 .24242E+02     0.000
BIGSUB 124     2010   10 .16211E+02     0.000
BIGSUB 125     2010   10 .26587E+02     0.000
BIGSUB 126     2010   10 .65288E+02     0.000
BIGSUB 127     2010   10 .27142E+02     0.000
BIGSUB 128     2010   10 .88441E+02     0.000
BIGSUB 129     2010   10 .57422E+02     0.000
BIGSUB 130     2010   10 .12472E+01     0.000
BIGSUB 131     2010   10 .40099E+02     0.000
BIGSUB 132     2010   10 .73705E+02     0.000
BIGSUB 133     2010   10 .39979E+02     0.000
BIGSUB   1     2010   11 .45854E+02    29.515
BIGSUB   2     2010   11 .86189E+02    29.267
BIGSUB   3     2010   11 .27984E+02    29.515
BIGSUB   4     2010   11 .24648E+02    29.515
BIGSUB   5     2010   11 .27452E+02    32.517
BIGSUB   6     2010   11 .38126E+02    29.515
BIGSUB   7     2010   11 .33075E+00    29.515
BIGSUB   8     2010   11 .26952E+02    29.515
BIGSUB   9     2010   11 .22204E+02    32.517
BIGSUB  10     2010   11 .13462E+02    32.517
BIGSUB  11     2010   11 .22291E+02    29.515
BIGSUB  12     2010   11 .32784E+02    32.517
BIGSUB  13     2010   11 .79636E+01    32.517
BIGSUB  14     2010   11 .22689E+02    32.517
BIGSUB  15     2010   11 .26213E+01    32.517
BIGSUB  16     2010   11 .52920E-01    32.517
BIGSUB  17     2010   11 .33622E+01    32.517
BIGSUB  18     2010   11 .22436E+02    32.517
BIGSUB  19     2010   11 .41798E+02    37.520
BIGSUB  20     2010   11 .45842E+02    36.019
BIGSUB  21     2010   11 .41386E+02    35.052
BIGSUB  22     2010   11 .25137E+02    35.478
BIGSUB  23     2010   11 .79468E+02    32.517
BIGSUB  24     2010   11 .24827E+02    32.517
BIGSUB  25     2010   11 .22920E+02    36.019
BIGSUB  26     2010   11 .44894E+01    36.019
BIGSUB  27     2010   11 .10460E+02    32.517
BIGSUB  28     2010   11 .30092E+02    32.517
BIGSUB  29     2010   11 .10686E+02    37.520
BIGSUB  30     2010   11 .43433E+02    36.019
BIGSUB  31     2010   11 .32131E+02    36.019
BIGSUB  32     2010   11 .32989E+02    44.023
BIGSUB  33     2010   11 .38508E+02    44.023
BIGSUB  34     2010   11 .74614E+02    44.023
BIGSUB  35     2010   11 .10432E+02    37.520
BIGSUB  36     2010   11 .86277E+02    37.520
BIGSUB  37     2010   11 .13750E+02    36.019
BIGSUB  38     2010   11 .66594E+02    36.019
BIGSUB  39     2010   11 .49092E+01    34.518
BIGSUB  40     2010   11 .17745E+02    34.518
BIGSUB  41     2010   11 .19859E+02    34.518
BIGSUB  42     2010   11 .83111E+02    37.520
BIGSUB  43     2010   11 .68870E+02    44.023
BIGSUB  44     2010   11 .43924E+02    34.518
BIGSUB  45     2010   11 .31932E+02    34.518
BIGSUB  46     2010   11 .11068E+02    34.518
BIGSUB  47     2010   11 .75818E+02    36.019
BIGSUB  48     2010   11 .33194E+02    35.519
BIGSUB  49     2010   11 .57024E+02    34.518
BIGSUB  50     2010   11 .12993E+02    34.518
BIGSUB  51     2010   11 .69997E+02    35.519
BIGSUB  52     2010   11 .25723E+02    35.519
BIGSUB  53     2010   11 .28527E+02    35.519
BIGSUB  54     2010   11 .46893E+02    40.021
BIGSUB  55     2010   11 .30643E+02    40.021
BIGSUB  56     2010   11 .94436E+01    34.518
BIGSUB  57     2010   11 .15118E+01    34.518
BIGSUB  58     2010   11 .12948E+01    38.020
BIGSUB  59     2010   11 .33671E+02    35.519
BIGSUB  60     2010   11 .38787E+02    38.020
BIGSUB  61     2010   11 .54657E+02    35.519
BIGSUB  62     2010   11 .76482E+02    38.020
BIGSUB  63     2010   11 .94665E+01    38.020
BIGSUB  64     2010   11 .17570E+02    40.021
BIGSUB  65     2010   11 .39035E+02    40.021
BIGSUB  66     2010   11 .89894E+01    40.021
BIGSUB  67     2010   11 .90405E+00    40.021
BIGSUB  68     2010   11 .17293E+02    40.021
BIGSUB  69     2010   11 .20709E+02    40.021
BIGSUB  70     2010   11 .44265E+02    34.518
BIGSUB  71     2010   11 .12188E+02    38.020
BIGSUB  72     2010   11 .31804E+02    38.020
BIGSUB  73     2010   11 .63116E+01    38.020
BIGSUB  74     2010   11 .12692E+01    40.021
BIGSUB  75     2010   11 .30132E+02    34.518
BIGSUB  76     2010   11 .13600E+01    38.020
BIGSUB  77     2010   11 .25220E+02    38.020
BIGSUB  78     2010   11 .51909E+02    38.020
BIGSUB  79     2010   11 .33231E+02    40.021
BIGSUB  80     2010   11 .28811E+02    34.518
BIGSUB  81     2010   11 .63654E+01    38.020
BIGSUB  82     2010   11 .59182E+00    38.020
BIGSUB  83     2010   11 .47258E+02    44.523
BIGSUB  84     2010   11 .79373E+02    40.021
BIGSUB  85     2010   11 .58331E+02    44.523
BIGSUB  86     2010   11 .29852E+02    38.020
BIGSUB  87     2010   11 .25581E+02    38.020
BIGSUB  88     2010   11 .20477E+02    38.020
BIGSUB  89     2010   11 .22789E+02    40.021
BIGSUB  90     2010   11 .53191E+02    44.523
BIGSUB  91     2010   11 .24741E+02     0.000
BIGSUB  92     2010   11 .56077E+02    44.523
BIGSUB  93     2010   11 .66944E+00    44.523
BIGSUB  94     2010   11 .30369E+02    44.523
BIGSUB  95     2010   11 .95265E+01    44.523
BIGSUB  96     2010   11 .44356E+01     0.000
BIGSUB  97     2010   11 .17044E+02     0.000
BIGSUB  98     2010   11 .38880E+02    38.020
BIGSUB  99     2010   11 .10526E+03    40.021
BIGSUB 100     2010   11 .22712E+02    44.523
BIGSUB 101     2010   11 .12029E+02    44.523
BIGSUB 102     2010   11 .20023E+02    44.023
BIGSUB 103     2010   11 .41736E+02    44.023
BIGSUB 104     2010   11 .29717E+02    44.023
BIGSUB 105     2010   11 .20328E+02     0.000
BIGSUB 106     2010   11 .25620E+02    44.023
BIGSUB 107     2010   11 .29696E+02     0.000
BIGSUB 108     2010   11 .12128E+01     0.000
BIGSUB 109     2010   11 .38774E+02     0.000
BIGSUB 110     2010   11 .74938E+02     0.000
BIGSUB 111     2010   11 .29993E+02     0.000
BIGSUB 112     2010   11 .64651E+00     0.000
BIGSUB 113     2010   11 .66414E+02    44.523
BIGSUB 114     2010   11 .38803E+02     0.000
BIGSUB 115     2010   11 .32887E+02     0.000
BIGSUB 116     2010   11 .29806E+02     0.000
BIGSUB 117     2010   11 .81135E+01     0.000
BIGSUB 118     2010   11 .10668E+02     0.000
BIGSUB 119     2010   11 .82472E+02    44.023
BIGSUB 120     2010   11 .83543E+01     0.000
BIGSUB 121     2010   11 .66700E+02     0.000
BIGSUB 122     2010   11 .41534E+02     0.000
BIGSUB 123     2010   11 .24242E+02     0.000
BIGSUB 124     2010   11 .16211E+02     0.000
BIGSUB 125     2010   11 .26587E+02     0.000
BIGSUB 126     2010   11 .65288E+02     0.000
BIGSUB 127     2010   11 .27142E+02     0.000
BIGSUB 128     2010   11 .88441E+02     0.000
BIGSUB 129     2010   11 .57422E+02     0.000
BIGSUB 130     2010   11 .12472E+01     0.000
BIGSUB 131     2010   11 .40099E+02     0.000
BIGSUB 132     2010   11 .73705E+02     0.000
BIGSUB 133     2010   11 .39979E+02     0.000
BIGSUB   1     2010   12 .45854E+02    90.647
BIGSUB   2     2010   12 .86189E+02    89.886
BIGSUB   3     2010   12 .27984E+02    90.647
BIGSUB   4     2010   12 .24648E+02    90.647
BIGSUB   5     2010   12 .27452E+02   115.960
BIGSUB   6     2010   12 .38126E+02    90.647
BIGSUB   7     2010   12 .33075E+00    90.647
BIGSUB   8     2010   12 .26952E+02    90.647
BIGSUB   9     2010   12 .22204E+02   115.960
BIGSUB  10     2010   12 .13462E+02   115.960
BIGSUB  11     2010   12 .22291E+02    90.647
BIGSUB  12     2010   12 .32784E+02   115.960
BIGSUB  13     2010   12 .79636E+01   115.960
BIGSUB  14     2010   12 .22689E+02   115.960
BIGSUB  15     2010   12 .26213E+01   115.960
BIGSUB  16     2010   12 .52920E-01   115.960
BIGSUB  17     2010   12 .33622E+01   115.960
BIGSUB  18     2010   12 .22436E+02   115.960
BIGSUB  19     2010   12 .41798E+02   107.856
BIGSUB  20     2010   12 .45842E+02   135.070
BIGSUB  21     2010   12 .41386E+02   131.443
BIGSUB  22     2010   12 .25137E+02   133.042
BIGSUB  23     2010   12 .79468E+02   115.960
BIGSUB  24     2010   12 .24827E+02   115.960
BIGSUB  25     2010   12 .22920E+02   135.070
BIGSUB  26     2010   12 .44894E+01   135.070
BIGSUB  27     2010   12 .10460E+02   115.960
BIGSUB  28     2010   12 .30092E+02   115.960
BIGSUB  29     2010   12 .10686E+02   107.856
BIGSUB  30     2010   12 .43433E+02   135.070
BIGSUB  31     2010   12 .32131E+02   135.070
BIGSUB  32     2010   12 .32989E+02   125.465
BIGSUB  33     2010   12 .38508E+02   125.465
BIGSUB  34     2010   12 .74614E+02   125.465
BIGSUB  35     2010   12 .10432E+02   107.856
BIGSUB  36     2010   12 .86277E+02   107.856
BIGSUB  37     2010   12 .13750E+02   135.070
BIGSUB  38     2010   12 .66594E+02   135.070
BIGSUB  39     2010   12 .49092E+01   129.668
BIGSUB  40     2010   12 .17745E+02   129.668
BIGSUB  41     2010   12 .19859E+02   129.668
BIGSUB  42     2010   12 .83111E+02   107.856
BIGSUB  43     2010   12 .68870E+02   125.465
BIGSUB  44     2010   12 .43924E+02   129.668
BIGSUB  45     2010   12 .31932E+02   129.668
BIGSUB  46     2010   12 .11068E+02   129.668
BIGSUB  47     2010   12 .75818E+02   135.070
BIGSUB  48     2010   12 .33194E+02   135.070
BIGSUB  49     2010   12 .57024E+02   129.668
BIGSUB  50     2010   12 .12993E+02   129.668
BIGSUB  51     2010   12 .69997E+02   135.070
BIGSUB  52     2010   12 .25723E+02   135.070
BIGSUB  53     2010   12 .28527E+02   135.070
BIGSUB  54     2010   12 .46893E+02   126.466
BIGSUB  55     2010   12 .30643E+02   126.466
BIGSUB  56     2010   12 .94436E+01   129.668
BIGSUB  57     2010   12 .15118E+01   129.668
BIGSUB  58     2010   12 .12948E+01   144.075
BIGSUB  59     2010   12 .33671E+02   135.070
BIGSUB  60     2010   12 .38787E+02   144.075
BIGSUB  61     2010   12 .54657E+02   135.070
BIGSUB  62     2010   12 .76482E+02   144.075
BIGSUB  63     2010   12 .94665E+01   144.075
BIGSUB  64     2010   12 .17570E+02   126.466
BIGSUB  65     2010   12 .39035E+02   126.466
BIGSUB  66     2010   12 .89894E+01   126.466
BIGSUB  67     2010   12 .90405E+00   126.466
BIGSUB  68     2010   12 .17293E+02   126.466
BIGSUB  69     2010   12 .20709E+02   126.466
BIGSUB  70     2010   12 .44265E+02   129.668
BIGSUB  71     2010   12 .12188E+02   144.075
BIGSUB  72     2010   12 .31804E+02   144.075
BIGSUB  73     2010   12 .63116E+01   144.075
BIGSUB  74     2010   12 .12692E+01   126.466
BIGSUB  75     2010   12 .30132E+02   129.668
BIGSUB  76     2010   12 .13600E+01   144.075
BIGSUB  77     2010   12 .25220E+02   144.075
BIGSUB  78     2010   12 .51909E+02   144.075
BIGSUB  79     2010   12 .33231E+02   126.466
BIGSUB  80     2010   12 .28811E+02   129.668
BIGSUB  81     2010   12 .63654E+01   144.075
BIGSUB  82     2010   12 .59182E+00   144.075
BIGSUB  83     2010   12 .47258E+02   144.675
BIGSUB  84     2010   12 .79373E+02   126.466
BIGSUB  85     2010   12 .58331E+02   144.675
BIGSUB  86     2010   12 .29852E+02   144.075
BIGSUB  87     2010   12 .25581E+02   144.075
BIGSUB  88     2010   12 .20477E+02   144.075
BIGSUB  89     2010   12 .22789E+02   126.466
BIGSUB  90     2010   12 .53191E+02   144.675
BIGSUB  91     2010   12 .24741E+02     0.000
BIGSUB  92     2010   12 .56077E+02   144.675
BIGSUB  93     2010   12 .66944E+00   144.675
BIGSUB  94     2010   12 .30369E+02   144.675
BIGSUB  95     2010   12 .95265E+01   144.675
BIGSUB  96     2010   12 .44356E+01     0.000
BIGSUB  97     2010   12 .17044E+02     0.000
BIGSUB  98     2010   12 .38880E+02   144.075
BIGSUB  99     2010   12 .10526E+03   126.466
BIGSUB 100     2010   12 .22712E+02   144.675
BIGSUB 101     2010   12 .12029E+02   144.675
BIGSUB 102     2010   12 .20023E+02   144.375
BIGSUB 103     2010   12 .41736E+02   144.375
BIGSUB 104     2010   12 .29717E+02   144.375
BIGSUB 105     2010   12 .20328E+02     0.000
BIGSUB 106     2010   12 .25620E+02   144.375
BIGSUB 107     2010   12 .29696E+02     0.000
BIGSUB 108     2010   12 .12128E+01     0.000
BIGSUB 109     2010   12 .38774E+02     0.000
BIGSUB 110     2010   12 .74938E+02     0.000
BIGSUB 111     2010   12 .29993E+02     0.000
BIGSUB 112     2010   12 .64651E+00     0.000
BIGSUB 113     2010   12 .66414E+02   144.675
BIGSUB 114     2010   12 .38803E+02     0.000
BIGSUB 115     2010   12 .32887E+02     0.000
BIGSUB 116     2010   12 .29806E+02     0.000
BIGSUB 117     2010   12 .81135E+01     0.000
BIGSUB 118     2010   12 .10668E+02     0.000
BIGSUB 119     2010   12 .82472E+02   144.375
BIGSUB 120     2010   12 .83543E+01     0.000
BIGSUB 121     2010   12 .66700E+02     0.000
BIGSUB 122     2010   12 .41534E+02     0.000
BIGSUB 123     2010   12 .24242E+02     0.000
BIGSUB 124     2010   12 .16211E+02     0.000
BIGSUB 125     2010   12 .26587E+02     0.000
BIGSUB 126     2010   12 .65288E+02     0.000
BIGSUB 127     2010   12 .27142E+02     0.000
BIGSUB 128     2010   12 .88441E+02     0.000
BIGSUB 129     2010   12 .57422E+02     0.000
BIGSUB 130     2010   12 .12472E+01     0.000
BIGSUB 131     2010   12 .40099E+02     0.000
BIGSUB 132     2010   12 .73705E+02     0.000
BIGSUB 133     2010   12 .39979E+02     0.000
BIGSUB   1        0 2010 .45854E+02  1679.575
BIGSUB   2        0 2010 .86189E+02  1665.465
BIGSUB   3        0 2010 .27984E+02  1679.575
BIGSUB   4        0 2010 .24648E+02  1679.575
BIGSUB   5        0 2010 .27452E+02  1718.896
BIGSUB   6        0 2010 .38126E+02  1679.575
BIGSUB   7        0 2010 .33075E+00  1679.575
BIGSUB   8        0 2010 .26952E+02  1679.575
BIGSUB   9        0 2010 .22204E+02  1718.896
BIGSUB  10        0 2010 .13462E+02  1718.896
BIGSUB  11        0 2010 .22291E+02  1679.575
BIGSUB  12        0 2010 .32784E+02  1718.896
BIGSUB  13        0 2010 .79636E+01  1718.896
BIGSUB  14        0 2010 .22689E+02  1718.896
BIGSUB  15        0 2010 .26213E+01  1718.896
BIGSUB  16        0 2010 .52920E-01  1718.896
BIGSUB  17        0 2010 .33622E+01  1718.896
BIGSUB  18        0 2010 .22436E+02  1718.896
BIGSUB  19        0 2010 .41798E+02  1650.760
BIGSUB  20        0 2010 .45842E+02  1986.136
BIGSUB  21        0 2010 .41386E+02  1932.803
BIGSUB  22        0 2010 .25137E+02  1956.308
BIGSUB  23        0 2010 .79468E+02  1718.896
BIGSUB  24        0 2010 .24827E+02  1718.896
BIGSUB  25        0 2010 .22920E+02  1986.135
BIGSUB  26        0 2010 .44894E+01  1986.135
BIGSUB  27        0 2010 .10460E+02  1718.896
BIGSUB  28        0 2010 .30092E+02  1718.896
BIGSUB  29        0 2010 .10686E+02  1650.760
BIGSUB  30        0 2010 .43433E+02  1986.135
BIGSUB  31        0 2010 .32131E+02  1986.135
BIGSUB  32        0 2010 .32989E+02  2123.406
BIGSUB  33        0 2010 .38508E+02  2123.407
BIGSUB  34        0 2010 .74614E+02  2123.406
BIGSUB  35        0 2010 .10432E+02  1650.760
BIGSUB  36        0 2010 .86277E+02  1650.760
BIGSUB  37        0 2010 .13750E+02  1986.135
BIGSUB  38        0 2010 .66594E+02  1986.135
BIGSUB  39        0 2010 .49092E+01  1695.984
BIGSUB  40        0 2010 .17745E+02  1695.984
BIGSUB  41        0 2010 .19859E+02  1695.984
BIGSUB  42        0 2010 .83111E+02  1650.761
BIGSUB  43        0 2010 .68870E+02  2123.407
BIGSUB  44        0 2010 .43924E+02  1695.984
BIGSUB  45        0 2010 .31932E+02  1695.984
BIGSUB  46        0 2010 .11068E+02  1695.984
BIGSUB  47        0 2010 .75818E+02  1986.136
BIGSUB  48        0 2010 .33194E+02  1755.115
BIGSUB  49        0 2010 .57024E+02  1695.984
BIGSUB  50        0 2010 .12993E+02  1695.984
BIGSUB  51        0 2010 .69997E+02  1755.115
BIGSUB  52        0 2010 .25723E+02  1755.115
BIGSUB  53        0 2010 .28527E+02  1755.115
BIGSUB  54        0 2010 .46893E+02  1747.211
BIGSUB  55        0 2010 .30643E+02  1747.211
BIGSUB  56        0 2010 .94436E+01  1695.984
BIGSUB  57        0 2010 .15118E+01  1695.984
BIGSUB  58        0 2010 .12948E+01  1707.089
BIGSUB  59        0 2010 .33671E+02  1755.115
BIGSUB  60        0 2010 .38787E+02  1707.089
BIGSUB  61        0 2010 .54657E+02  1755.115
BIGSUB  62        0 2010 .76482E+02  1707.089
BIGSUB  63        0 2010 .94665E+01  1707.089
BIGSUB  64        0 2010 .17570E+02  1747.210
BIGSUB  65        0 2010 .39035E+02  1747.210
BIGSUB  66        0 2010 .89894E+01  1747.211
BIGSUB  67        0 2010 .90405E+00  1747.211
BIGSUB  68        0 2010 .17293E+02  1747.211
BIGSUB  69        0 2010 .20709E+02  1747.210
BIGSUB  70        0 2010 .44265E+02  1695.983
BIGSUB  71        0 2010 .12188E+02  1707.090
BIGSUB  72        0 2010 .31804E+02  1707.089
BIGSUB  73        0 2010 .63116E+01  1707.089
BIGSUB  74        0 2010 .12692E+01  1747.210
BIGSUB  75        0 2010 .30132E+02  1695.984
BIGSUB  76        0 2010 .13600E+01  1707.089
BIGSUB  77        0 2010 .25220E+02  1707.089
BIGSUB  78        0 2010 .51909E+02  1707.089
BIGSUB  79        0 2010 .33231E+02  1747.210
BIGSUB  80        0 2010 .28811E+02  1695.984
BIGSUB  81        0 2010 .63654E+01  1707.090
BIGSUB  82        0 2010 .59182E+00  1707.090
BIGSUB  83        0 2010 .47258E+02  1720.097
BIGSUB  84        0 2010 .79373E+02  1747.211
BIGSUB  85        0 2010 .58331E+02  1720.097
BIGSUB  86        0 2010 .29852E+02  1707.090
BIGSUB  87        0 2010 .25581E+02  1707.090
BIGSUB  88        0 2010 .20477E+02  1707.089
BIGSUB  89        0 2010 .22789E+02  1747.211
BIGSUB  90        0 2010 .53191E+02  1720.096
BIGSUB  91        0 2010 .24741E+02     0.000
BIGSUB  92        0 2010 .56077E+02  1720.096
BIGSUB  93        0 2010 .66944E+00  1720.096
BIGSUB  94        0 2010 .30369E+02  1720.096
BIGSUB  95        0 2010 .95265E+01  1720.097
BIGSUB  96        0 2010 .44356E+01     0.000
BIGSUB  97        0 2010 .17044E+02     0.000
BIGSUB  98        0 2010 .38880E+02  1707.090
BIGSUB  99        0 2010 .10526E+03  1747.210
BIGSUB 100        0 2010 .22712E+02  1720.096
BIGSUB 101        0 2010 .12029E+02  1720.096
BIGSUB 102        0 2010 .20023E+02  1630.450
BIGSUB 103        0 2010 .41736E+02  1630.450
BIGSUB 104        0 2010 .29717E+02  1630.450
BIGSUB 105        0 2010 .20328E+02     0.000
BIGSUB 106        0 2010 .25620E+02  1630.450
BIGSUB 107        0 2010 .29696E+02     0.000
BIGSUB 108        0 2010 .12128E+01     0.000
BIGSUB 109        0 2010 .38774E+02     0.000
BIGSUB 110        0 2010 .74938E+02     0.000
BIGSUB 111        0 2010 .29993E+02     0.000
BIGSUB 112        0 2010 .64651E+00     0.000
BIGSUB 113        0 2010 .66414E+02  1720.096
BIGSUB 114        0 2010 .38803E+02     0.000
BIGSUB 115        0 2010 .32887E+02     0.000
BIGSUB 116        0 2010 .29806E+02     0.000
BIGSUB 117        0 2010 .81135E+01     0.000
BIGSUB 118        0 2010 .10668E+02     0.000
BIGSUB 119        0 2010 .82472E+02  1630.449
BIGSUB 120        0 2010 .83543E+01     0.000
BIGSUB 121        0 2010 .66700E+02     0.000
BIGSUB 122        0 2010 .41534E+02     0.000
BIGSUB 123        0 2010 .24242E+02     0.000
BIGSUB 124        0 2010 .16211E+02     0.000
BIGSUB 125        0 2010 .26587E+02     0.000
BIGSUB 126        0 2010 .65288E+02     0.000
BIGSUB 127        0 2010 .27142E+02     0.000
BIGSUB 128        0 2010 .88441E+02     0.000
BIGSUB 129        0 2010 .57422E+02     0.000
BIGSUB 130        0 2010 .12472E+01     0.000
BIGSUB 131        0 2010 .40099E+02     0.000
BIGSUB 132        0 2010 .73705E+02     0.000
BIGSUB 133        0 2010 .39979E+02     0.000
[...]
BIGSUB  96        0 2015 .44356E+01     0.000
BIGSUB  97        0 2015 .17044E+02     0.000
BIGSUB  98        0 2015 .38880E+02  1741.908
BIGSUB  99        0 2015 .10526E+03  1687.579
BIGSUB 100        0 2015 .22712E+02  1583.225
BIGSUB 101        0 2015 .12029E+02  1583.225
BIGSUB 102        0 2015 .20023E+02  1652.661
BIGSUB 103        0 2015 .41736E+02  1652.661
BIGSUB 104        0 2015 .29717E+02  1652.662
BIGSUB 105        0 2015 .20328E+02     0.000
BIGSUB 106        0 2015 .25620E+02  1652.662
BIGSUB 107        0 2015 .29696E+02     0.000
BIGSUB 108        0 2015 .12128E+01     0.000
BIGSUB 109        0 2015 .38774E+02     0.000
BIGSUB 110        0 2015 .74938E+02     0.000
BIGSUB 111        0 2015 .29993E+02     0.000
BIGSUB 112        0 2015 .64651E+00     0.000
BIGSUB 113        0 2015 .66414E+02  1583.225
BIGSUB 114        0 2015 .38803E+02     0.000
BIGSUB 115        0 2015 .32887E+02     0.000
BIGSUB 116        0 2015 .29806E+02     0.000
BIGSUB 117        0 2015 .81135E+01     0.000
BIGSUB 118        0 2015 .10668E+02     0.000
BIGSUB 119        0 2015 .82472E+02  1652.661
BIGSUB 120        0 2015 .83543E+01     0.000
BIGSUB 121        0 2015 .66700E+02     0.000
BIGSUB 122        0 2015 .41534E+02     0.000
BIGSUB 123        0 2015 .24242E+02     0.000
BIGSUB 124        0 2015 .16211E+02     0.000
BIGSUB 125        0 2015 .26587E+02     0.000
BIGSUB 126        0 2015 .65288E+02     0.000
BIGSUB 127        0 2015 .27142E+02     0.000
BIGSUB 128        0 2015 .88441E+02     0.000
BIGSUB 129        0 2015 .57422E+02     0.000
BIGSUB 130        0 2015 .12472E+01     0.000
BIGSUB 131        0 2015 .40099E+02     0.000
BIGSUB 132        0 2015 .73705E+02     0.000
BIGSUB 133        0 2015 .39979E+02     0.000
BIGSUB   1     2015    1 .45854E+02     0.000
BIGSUB   2     2015    1 .86189E+02     0.000
BIGSUB   3     2015    1 .27984E+02     0.000
BIGSUB   4     2015    1 .24648E+02     0.000
BIGSUB   5     2015    1 .27452E+02     0.000
BIGSUB   6     2015    1 .38126E+02     0.000
BIGSUB   7     2015    1 .33075E+00     0.000
BIGSUB   8     2015    1 .26952E+02     0.000
BIGSUB   9     2015    1 .22204E+02     0.000
BIGSUB  10     2015    1 .13462E+02     0.000
BIGSUB  11     2015    1 .22291E+02     0.000
BIGSUB  12     2015    1 .32784E+02     0.000
BIGSUB  13     2015    1 .79636E+01     0.000
BIGSUB  14     2015    1 .22689E+02     0.000
BIGSUB  15     2015    1 .26213E+01     0.000
BIGSUB  16     2015    1 .52920E-01     0.000
BIGSUB  17     2015    1 .33622E+01     0.000
BIGSUB  18     2015    1 .22436E+02     0.000
BIGSUB  19     2015    1 .41798E+02     0.000
BIGSUB  20     2015    1 .45842E+02     0.000
BIGSUB  21     2015    1 .41386E+02     0.000
BIGSUB  22     2015    1 .25137E+02     0.000
BIGSUB  23     2015    1 .79468E+02     0.000
BIGSUB  24     2015    1 .24827E+02     0.000
BIGSUB  25     2015    1 .22920E+02     0.000
BIGSUB  26     2015    1 .44894E+01     0.000
BIGSUB  27     2015    1 .10460E+02     0.000
BIGSUB  28     2015    1 .30092E+02     0.000
BIGSUB  29     2015    1 .10686E+02     0.000
BIGSUB  30     2015    1 .43433E+02     0.000
BIGSUB  31     2015    1 .32131E+02     0.000
BIGSUB  32     2015    1 .32989E+02     0.000
BIGSUB  33     2015    1 .38508E+02     0.000
BIGSUB  34     2015    1 .74614E+02     0.000
BIGSUB  35     2015    1 .10432E+02     0.000
BIGSUB  36     2015    1 .86277E+02     0.000
BIGSUB  37     2015    1 .13750E+02     0.000
BIGSUB  38     2015    1 .66594E+02     0.000
BIGSUB  39     2015    1 .49092E+01     0.000
BIGSUB  40     2015    1 .17745E+02     0.000
BIGSUB  41     2015    1 .19859E+02     0.000
BIGSUB  42     2015    1 .83111E+02     0.000
BIGSUB  43     2015    1 .68870E+02     0.000
BIGSUB  44     2015    1 .43924E+02     0.000
BIGSUB  45     2015    1 .31932E+02     0.000
BIGSUB  46     2015    1 .11068E+02     0.000
BIGSUB  47     2015    1 .75818E+02     0.000
BIGSUB  48     2015    1 .33194E+02     0.900
BIGSUB  49     2015    1 .57024E+02     0.000
BIGSUB  50     2015    1 .12993E+02     0.000
BIGSUB  51     2015    1 .69997E+02     0.900
BIGSUB  52     2015    1 .25723E+02     0.900
BIGSUB  53     2015    1 .28527E+02     0.900
BIGSUB  54     2015    1 .46893E+02     0.000
BIGSUB  55     2015    1 .30643E+02     0.000
BIGSUB  56     2015    1 .94436E+01     0.000
BIGSUB  57     2015    1 .15118E+01     0.000
BIGSUB  58     2015    1 .12948E+01     0.400
BIGSUB  59     2015    1 .33671E+02     0.900
BIGSUB  60     2015    1 .38787E+02     0.400
BIGSUB  61     2015    1 .54657E+02     0.900
BIGSUB  62     2015    1 .76482E+02     0.400
BIGSUB  63     2015    1 .94665E+01     0.400
BIGSUB  64     2015    1 .17570E+02     0.000
BIGSUB  65     2015    1 .39035E+02     0.000
BIGSUB  66     2015    1 .89894E+01     0.000
BIGSUB  67     2015    1 .90405E+00     0.000
BIGSUB  68     2015    1 .17293E+02     0.000
BIGSUB  69     2015    1 .20709E+02     0.000
BIGSUB  70     2015    1 .44265E+02     0.000
BIGSUB  71     2015    1 .12188E+02     0.400
BIGSUB  72     2015    1 .31804E+02     0.400
BIGSUB  73     2015    1 .63116E+01     0.400
BIGSUB  74     2015    1 .12692E+01     0.000
BIGSUB  75     2015    1 .30132E+02     0.000
BIGSUB  76     2015    1 .13600E+01     0.400
BIGSUB  77     2015    1 .25220E+02     0.400
BIGSUB  78     2015    1 .51909E+02     0.400
BIGSUB  79     2015    1 .33231E+02     0.000
BIGSUB  80     2015    1 .28811E+02     0.000
BIGSUB  81     2015    1 .63654E+01     0.400
BIGSUB  82     2015    1 .59182E+00     0.400
BIGSUB  83     2015    1 .47258E+02     0.000
BIGSUB  84     2015    1 .79373E+02     0.000
BIGSUB  85     2015    1 .58331E+02     0.000
BIGSUB  86     2015    1 .29852E+02     0.400
BIGSUB  87     2015    1 .25581E+02     0.400
BIGSUB  88     2015    1 .20477E+02     0.400
BIGSUB  89     2015    1 .22789E+02     0.000
BIGSUB  90     2015    1 .53191E+02     0.000
BIGSUB  91     2015    1 .24741E+02     0.000
BIGSUB  92     2015    1 .56077E+02     0.000
BIGSUB  93     2015    1 .66944E+00     0.000
BIGSUB  94     2015    1 .30369E+02     0.000
BIGSUB  95     2015    1 .95265E+01     0.000
BIGSUB  96     2015    1 .44356E+01     0.000
BIGSUB  97     2015    1 .17044E+02     0.000
BIGSUB  98     2015    1 .38880E+02     0.400
BIGSUB  99     2015    1 .10526E+03     0.000
BIGSUB 100     2015    1 .22712E+02     0.000
BIGSUB 101     2015    1 .12029E+02     0.000
BIGSUB 102     2015    1 .20023E+02     1.001
BIGSUB 103     2015    1 .41736E+02     1.001
BIGSUB 104     2015    1 .29717E+02     1.001
BIGSUB 105     2015    1 .20328E+02     0.000
BIGSUB 106     2015    1 .25620E+02     1.001
BIGSUB 107     2015    1 .29696E+02     0.000
BIGSUB 108     2015    1 .12128E+01     0.000
BIGSUB 109     2015    1 .38774E+02     0.000
BIGSUB 110     2015    1 .74938E+02     0.000
BIGSUB 111     2015    1 .29993E+02     0.000
BIGSUB 112     2015    1 .64651E+00     0.000
BIGSUB 113     2015    1 .66414E+02     0.000
BIGSUB 114     2015    1 .38803E+02     0.000
BIGSUB 115     2015    1 .32887E+02     0.000
BIGSUB 116     2015    1 .29806E+02     0.000
BIGSUB 117     2015    1 .81135E+01     0.000
BIGSUB 118     2015    1 .10668E+02     0.000
BIGSUB 119     2015    1 .82472E+02     1.001
BIGSUB 120     2015    1 .83543E+01     0.000
BIGSUB 121     2015    1 .66700E+02     0.000
BIGSUB 122     2015    1 .41534E+02     0.000
BIGSUB 123     2015    1 .24242E+02     0.000
BIGSUB 124     2015    1 .16211E+02     0.000
BIGSUB 125     2015    1 .26587E+02     0.000
BIGSUB 126     2015    1 .65288E+02     0.000
BIGSUB 127     2015    1 .27142E+02     0.000
BIGSUB 128     2015    1 .88441E+02     0.000
BIGSUB 129     2015    1 .57422E+02     0.000
BIGSUB 130     2015    1 .12472E+01     0.000
BIGSUB 131     2015    1 .40099E+02     0.000
BIGSUB 132     2015    1 .73705E+02     0.000
BIGSUB 133     2015    1 .39979E+02     0.000
BIGSUB   1        0 2015 .45854E+02     0.000
BIGSUB   2        0 2015 .86189E+02     0.000
BIGSUB   3        0 2015 .27984E+02     0.000
BIGSUB   4        0 2015 .24648E+02     0.000
BIGSUB   5        0 2015 .27452E+02     0.000
BIGSUB   6        0 2015 .38126E+02     0.000
BIGSUB   7        0 2015 .33075E+00     0.000
BIGSUB   8        0 2015 .26952E+02     0.000
BIGSUB   9        0 2015 .22204E+02     0.000
BIGSUB  10        0 2015 .13462E+02     0.000
BIGSUB  11        0 2015 .22291E+02     0.000
BIGSUB  12        0 2015 .32784E+02     0.000
BIGSUB  13        0 2015 .79636E+01     0.000
BIGSUB  14        0 2015 .22689E+02     0.000
BIGSUB  15        0 2015 .26213E+01     0.000
BIGSUB  16        0 2015 .52920E-01     0.000
BIGSUB  17        0 2015 .33622E+01     0.000
BIGSUB  18        0 2015 .22436E+02     0.000
BIGSUB  19        0 2015 .41798E+02     0.000
BIGSUB  20        0 2015 .45842E+02     0.000
BIGSUB  21        0 2015 .41386E+02     0.000
BIGSUB  22        0 2015 .25137E+02     0.000
BIGSUB  23        0 2015 .79468E+02     0.000
BIGSUB  24        0 2015 .24827E+02     0.000
BIGSUB  25        0 2015 .22920E+02     0.000
BIGSUB  26        0 2015 .44894E+01     0.000
BIGSUB  27        0 2015 .10460E+02     0.000
BIGSUB  28        0 2015 .30092E+02     0.000
BIGSUB  29        0 2015 .10686E+02     0.000
BIGSUB  30        0 2015 .43433E+02     0.000
BIGSUB  31        0 2015 .32131E+02     0.000
BIGSUB  32        0 2015 .32989E+02     0.000
BIGSUB  33        0 2015 .38508E+02     0.000
BIGSUB  34        0 2015 .74614E+02     0.000
BIGSUB  35        0 2015 .10432E+02     0.000
BIGSUB  36        0 2015 .86277E+02     0.000
BIGSUB  37        0 2015 .13750E+02     0.000
BIGSUB  38        0 2015 .66594E+02     0.000
BIGSUB  39        0 2015 .49092E+01     0.000
BIGSUB  40        0 2015 .17745E+02     0.000
BIGSUB  41        0 2015 .19859E+02     0.000
BIGSUB  42        0 2015 .83111E+02     0.000
BIGSUB  43        0 2015 .68870E+02     0.000
BIGSUB  44        0 2015 .43924E+02     0.000
BIGSUB  45        0 2015 .31932E+02     0.000
BIGSUB  46        0 2015 .11068E+02     0.000
BIGSUB  47        0 2015 .75818E+02     0.000
BIGSUB  48        0 2015 .33194E+02     0.900
BIGSUB  49        0 2015 .57024E+02     0.000
BIGSUB  50        0 2015 .12993E+02     0.000
BIGSUB  51        0 2015 .69997E+02     0.900
BIGSUB  52        0 2015 .25723E+02     0.900
BIGSUB  53        0 2015 .28527E+02     0.900
BIGSUB  54        0 2015 .46893E+02     0.000
BIGSUB  55        0 2015 .30643E+02     0.000
BIGSUB  56        0 2015 .94436E+01     0.000
BIGSUB  57        0 2015 .15118E+01     0.000
BIGSUB  58        0 2015 .12948E+01     0.400
BIGSUB  59        0 2015 .33671E+02     0.900
BIGSUB  60        0 2015 .38787E+02     0.400
BIGSUB  61        0 2015 .54657E+02     0.900
BIGSUB  62        0 2015 .76482E+02     0.400
BIGSUB  63        0 2015 .94665E+01     0.400
BIGSUB  64        0 2015 .17570E+02     0.000
BIGSUB  65        0 2015 .39035E+02     0.000
BIGSUB  66        0 2015 .89894E+01     0.000
BIGSUB  67        0 2015 .90405E+00     0.000
BIGSUB  68        0 2015 .17293E+02     0.000
BIGSUB  69        0 2015 .20709E+02     0.000
BIGSUB  70        0 2015 .44265E+02     0.000
BIGSUB  71        0 2015 .12188E+02     0.400
BIGSUB  72        0 2015 .31804E+02     0.400
BIGSUB  73        0 2015 .63116E+01     0.400
BIGSUB  74        0 2015 .12692E+01     0.000
BIGSUB  75        0 2015 .30132E+02     0.000
BIGSUB  76        0 2015 .13600E+01     0.400
BIGSUB  77        0 2015 .25220E+02     0.400
BIGSUB  78        0 2015 .51909E+02     0.400
BIGSUB  79        0 2015 .33231E+02     0.000
BIGSUB  80        0 2015 .28811E+02     0.000
BIGSUB  81        0 2015 .63654E+01     0.400
BIGSUB  82        0 2015 .59182E+00     0.400
BIGSUB  83        0 2015 .47258E+02     0.000
BIGSUB  84        0 2015 .79373E+02     0.000
BIGSUB  85        0 2015 .58331E+02     0.000
BIGSUB  86        0 2015 .29852E+02     0.400
BIGSUB  87        0 2015 .25581E+02     0.400
BIGSUB  88        0 2015 .20477E+02     0.400
BIGSUB  89        0 2015 .22789E+02     0.000
BIGSUB  90        0 2015 .53191E+02     0.000
BIGSUB  91        0 2015 .24741E+02     0.000
BIGSUB  92        0 2015 .56077E+02     0.000
BIGSUB  93        0 2015 .66944E+00     0.000
BIGSUB  94        0 2015 .30369E+02     0.000
BIGSUB  95        0 2015 .95265E+01     0.000
BIGSUB  96        0 2015 .44356E+01     0.000
BIGSUB  97        0 2015 .17044E+02     0.000
BIGSUB  98        0 2015 .38880E+02     0.400
BIGSUB  99        0 2015 .10526E+03     0.000
BIGSUB 100        0 2015 .22712E+02     0.000
BIGSUB 101        0 2015 .12029E+02     0.000
BIGSUB 102        0 2015 .20023E+02     1.001
BIGSUB 103        0 2015 .41736E+02     1.001
BIGSUB 104        0 2015 .29717E+02     1.001
BIGSUB 105        0 2015 .20328E+02     0.000
BIGSUB 106        0 2015 .25620E+02     1.001
BIGSUB 107        0 2015 .29696E+02     0.000
BIGSUB 108        0 2015 .12128E+01     0.000
BIGSUB 109        0 2015 .38774E+02     0.000
BIGSUB 110        0 2015 .74938E+02     0.000
BIGSUB 111        0 2015 .29993E+02     0.000
BIGSUB 112        0 2015 .64651E+00     0.000
BIGSUB 113        0 2015 .66414E+02     0.000
BIGSUB 114        0 2015 .38803E+02     0.000
BIGSUB 115        0 2015 .32887E+02     0.000
BIGSUB 116        0 2015 .29806E+02     0.000
BIGSUB 117        0 2015 .81135E+01     0.000
BIGSUB 118        0 2015 .10668E+02     0.000
BIGSUB 119        0 2015 .82472E+02     1.001
BIGSUB 120        0 2015 .83543E+01     0.000
BIGSUB 121        0 2015 .66700E+02     0.000
BIGSUB 122        0 2015 .41534E+02     0.000
BIGSUB 123        0 2015 .24242E+02     0.000
BIGSUB 124        0 2015 .16211E+02     0.000
BIGSUB 125        0 2015 .26587E+02     0.000
BIGSUB 126        0 2015 .65288E+02     0.000
BIGSUB 127        0 2015 .27142E+02     0.000
BIGSUB 128        0 2015 .88441E+02     0.000
BIGSUB 129        0 2015 .57422E+02     0.000
BIGSUB 130        0 2015 .12472E+01     0.000
BIGSUB 131        0 2015 .40099E+02     0.000
BIGSUB 132        0 2015 .73705E+02     0.000
BIGSUB 133        0 2015 .39979E+02     0.000
BIGSUB   1        0  6.0.45854E+02  1833.669
BIGSUB   2        0  6.0.86189E+02  1818.264
BIGSUB   3        0  6.0.27984E+02  1833.668
BIGSUB   4        0  6.0.24648E+02  1833.669
BIGSUB   5        0  6.0.27452E+02  1774.548
BIGSUB   6        0  6.0.38126E+02  1833.669
BIGSUB   7        0  6.0.33075E+00  1833.669
BIGSUB   8        0  6.0.26952E+02  1833.668
BIGSUB   9        0  6.0.22204E+02  1774.548
BIGSUB  10        0  6.0.13462E+02  1774.548
BIGSUB  11        0  6.0.22291E+02  1833.669
BIGSUB  12        0  6.0.32784E+02  1774.548
BIGSUB  13        0  6.0.79636E+01  1774.548
BIGSUB  14        0  6.0.22689E+02  1774.548
BIGSUB  15        0  6.0.26213E+01  1774.548
BIGSUB  16        0  6.0.52920E-01  1774.548
BIGSUB  17        0  6.0.33622E+01  1774.549
BIGSUB  18        0  6.0.22436E+02  1774.548
BIGSUB  19        0  6.0.41798E+02  1850.970
BIGSUB  20        0  6.0.45842E+02  1912.924
BIGSUB  21        0  6.0.41386E+02  1861.557
BIGSUB  22        0  6.0.25137E+02  1884.196
BIGSUB  23        0  6.0.79468E+02  1774.548
BIGSUB  24        0  6.0.24827E+02  1774.549
BIGSUB  25        0  6.0.22920E+02  1912.924
BIGSUB  26        0  6.0.44894E+01  1912.924
BIGSUB  27        0  6.0.10460E+02  1774.548
BIGSUB  28        0  6.0.30092E+02  1774.548
BIGSUB  29        0  6.0.10686E+02  1850.970
BIGSUB  30        0  6.0.43433E+02  1912.924
BIGSUB  31        0  6.0.32131E+02  1912.924
BIGSUB  32        0  6.0.32989E+02  1883.872
BIGSUB  33        0  6.0.38508E+02  1883.872
BIGSUB  34        0  6.0.74614E+02  1883.872
BIGSUB  35        0  6.0.10432E+02  1850.970
BIGSUB  36        0  6.0.86277E+02  1850.970
BIGSUB  37        0  6.0.13750E+02  1912.923
BIGSUB  38        0  6.0.66594E+02  1912.924
BIGSUB  39        0  6.0.49092E+01  1712.644
BIGSUB  40        0  6.0.17745E+02  1712.644
BIGSUB  41        0  6.0.19859E+02  1712.644
BIGSUB  42        0  6.0.83111E+02  1850.970
BIGSUB  43        0  6.0.68870E+02  1883.872
BIGSUB  44        0  6.0.43924E+02  1712.645
BIGSUB  45        0  6.0.31932E+02  1712.644
BIGSUB  46        0  6.0.11068E+02  1712.644
BIGSUB  47        0  6.0.75818E+02  1912.924
BIGSUB  48        0  6.0.33194E+02  1824.585
BIGSUB  49        0  6.0.57024E+02  1712.644
BIGSUB  50        0  6.0.12993E+02  1712.644
BIGSUB  51        0  6.0.69997E+02  1824.585
BIGSUB  52        0  6.0.25723E+02  1824.585
BIGSUB  53        0  6.0.28527E+02  1824.585
BIGSUB  54        0  6.0.46893E+02  1446.910
BIGSUB  55        0  6.0.30643E+02  1446.911
BIGSUB  56        0  6.0.94436E+01  1712.644
BIGSUB  57        0  6.0.15118E+01  1712.644
BIGSUB  58        0  6.0.12948E+01  1805.134
BIGSUB  59        0  6.0.33671E+02  1824.585
BIGSUB  60        0  6.0.38787E+02  1805.133
BIGSUB  61        0  6.0.54657E+02  1824.585
BIGSUB  62        0  6.0.76482E+02  1805.133
BIGSUB  63        0  6.0.94665E+01  1805.134
BIGSUB  64        0  6.0.17570E+02  1446.910
BIGSUB  65        0  6.0.39035E+02  1446.910
BIGSUB  66        0  6.0.89894E+01  1446.910
BIGSUB  67        0  6.0.90405E+00  1446.910
BIGSUB  68        0  6.0.17293E+02  1446.910
BIGSUB  69        0  6.0.20709E+02  1446.910
BIGSUB  70        0  6.0.44265E+02  1712.644
BIGSUB  71        0  6.0.12188E+02  1805.134
BIGSUB  72        0  6.0.31804E+02  1805.133
BIGSUB  73        0  6.0.63116E+01  1805.134
BIGSUB  74        0  6.0.12692E+01  1446.910
BIGSUB  75        0  6.0.30132E+02  1712.644
BIGSUB  76        0  6.0.13600E+01  1805.133
BIGSUB  77        0  6.0.25220E+02  1805.133
BIGSUB  78        0  6.0.51909E+02  1805.133
BIGSUB  79        0  6.0.33231E+02  1446.910
BIGSUB  80        0  6.0.28811E+02  1712.644
BIGSUB  81        0  6.0.63654E+01  1805.134
BIGSUB  82        0  6.0.59182E+00  1805.134
BIGSUB  83        0  6.0.47258E+02  1569.585
BIGSUB  84        0  6.0.79373E+02  1446.910
BIGSUB  85        0  6.0.58331E+02  1569.585
BIGSUB  86        0  6.0.29852E+02  1805.134
BIGSUB  87        0  6.0.25581E+02  1805.134
BIGSUB  88        0  6.0.20477E+02  1805.134
BIGSUB  89        0  6.0.22789E+02  1446.910
BIGSUB  90        0  6.0.53191E+02  1569.585
BIGSUB  91        0  6.0.24741E+02     0.000
BIGSUB  92        0  6.0.56077E+02  1569.585
BIGSUB  93        0  6.0.66944E+00  1569.585
BIGSUB  94        0  6.0.30369E+02  1569.585
BIGSUB  95        0  6.0.95265E+01  1569.585
BIGSUB  96        0  6.0.44356E+01     0.000
BIGSUB  97        0  6.0.17044E+02     0.000
BIGSUB  98        0  6.0.38880E+02  1805.134
BIGSUB  99        0  6.0.10526E+03  1446.910
BIGSUB 100        0  6.0.22712E+02  1569.585
BIGSUB 101        0  6.0.12029E+02  1569.585
BIGSUB 102        0  6.0.20023E+02  1458.528
BIGSUB 103        0  6.0.41736E+02  1458.528
BIGSUB 104        0  6.0.29717E+02  1458.528
BIGSUB 105        0  6.0.20328E+02     0.000
BIGSUB 106        0  6.0.25620E+02  1458.528
BIGSUB 107        0  6.0.29696E+02     0.000
BIGSUB 108        0  6.0.12128E+01     0.000
BIGSUB 109        0  6.0.38774E+02     0.000
BIGSUB 110        0  6.0.74938E+02     0.000
BIGSUB 111        0  6.0.29993E+02     0.000
BIGSUB 112        0  6.0.64651E+00     0.000
BIGSUB 113        0  6.0.66414E+02  1569.585
BIGSUB 114        0  6.0.38803E+02     0.000
BIGSUB 115        0  6.0.32887E+02     0.000
BIGSUB 116        0  6.0.29806E+02     0.000
BIGSUB 117        0  6.0.81135E+01     0.000
BIGSUB 118        0  6.0.10668E+02     0.000
BIGSUB 119        0  6.0.82472E+02  1458.527
BIGSUB 120        0  6.0.83543E+01     0.000
BIGSUB 121        0  6.0.66700E+02     0.000
BIGSUB 122        0  6.0.41534E+02     0.000
BIGSUB 123        0  6.0.24242E+02     0.000
BIGSUB 124        0  6.0.16211E+02     0.000
BIGSUB 125        0  6.0.26587E+02     0.000
BIGSUB 126        0  6.0.65288E+02     0.000
BIGSUB 127        0  6.0.27142E+02     0.000
BIGSUB 128        0  6.0.88441E+02     0.000
BIGSUB 129        0  6.0.57422E+02     0.000
BIGSUB 130        0  6.0.12472E+01     0.000
BIGSUB 131        0  6.0.40099E+02     0.000
BIGSUB 132        0  6.0.73705E+02     0.000
BIGSUB 133        0  6.0.39979E+02     0.000
