1
    SWAT Dec 11 2014    VER 2012/Rev 635                                                                 0/ 0/   0      0: 0: 0

    General Input/Output section (file.cio):                                        
    2020/9/9 0:00:00 ARCGIS-SWAT interface AV                                       
                                                                                    
         Number of years in run:    6
         Area of watershed:     4246.146 km2
1
    SWAT Dec 11 2014    VER 2012/Rev 635                                            

    General Input/Output section (file.cio):                                        
    2020/9/9 0:00:00 ARCGIS-SWAT interface AV                                       
                                                                                    
Annual Summary for Watershed in year    1 of simulation

UNIT                                    PERCO    TILE                           WATER     SED     NO3     NO3     NO3     NO3        N       P       P
TIME     PREC    SURQ    LATQ     GWQ    LATE       Q     SW       ET     PET   YIELD   YIELD    SURQ    LATQ    PERC    CROP  ORGANIC SOLUBLE ORGANIC TILENO3
         (mm)    (mm)    (mm)    (mm)    (mm)    (mm)    (mm)    (mm)    (mm)    (mm)    (mm)   ------------------(kg nutrient/ha)-------------------- (kg/ha)
    1   49.89    3.08    2.65    0.99   13.43    0.00  144.81   24.32   35.07    6.74    1.96    0.01    0.15    4.97    0.00     2.55    0.00    0.31    0.00
    2   43.79    4.51    5.57    9.98   22.45    0.00  131.78   25.51   50.40   20.23    2.81    0.00    0.30    6.61    0.00     3.34    0.00    0.41    0.00
    3  144.53   35.51    9.56   21.61   45.48    0.00  139.50   43.47   86.81   67.05   34.21    0.01    0.28    8.85    0.00    27.23    0.01    3.34    0.00
    4  157.13   34.43   13.89   32.87   67.44    0.00  124.35   55.33   88.56   82.10   23.58    0.28    0.19    6.71    6.74    11.72    0.01    1.44    0.00
    5  266.09  115.17   15.07   46.41   63.23    0.00  118.42   75.57  113.65  177.95   13.46    0.27    0.07    2.11    9.38     5.46    0.01    0.67    0.00
    6  253.03  126.79   12.56   47.94   36.76    0.00  109.43   84.58  115.68  188.90    7.37    0.00    0.02    0.35    3.03     1.64    0.01    0.20    0.00
    7   74.16   12.49    7.16   40.46    2.96    0.00   75.23   90.92  153.77   61.89    0.23    0.02    0.01    0.01    4.02     0.06    0.00    0.01    0.00
    8   97.10   13.88    3.92   19.85    0.47    0.00   74.73   80.27  155.74   39.23    0.13    0.01    0.00    0.01    0.51     0.09    0.00    0.01    0.00
    9  117.89   15.05    5.18    3.98   12.10    0.00  110.40   47.62   94.24   25.42    0.14    0.02    0.00    0.18    0.12     0.09    0.00    0.02    0.00
   10   40.78    4.48    5.90    7.68    9.00    0.00  102.08   33.57   78.13   19.13    0.05    0.01    0.01    0.13    0.00     0.02    0.00    0.01    0.00
   11   29.39    1.78    1.65    7.78    0.50    0.00  109.67   19.26   57.92   12.10    0.04    0.01    0.00    0.01    0.00     0.02    0.00    0.00    0.00
   12   99.75   34.75    6.29    8.90   33.19    0.00  112.94   20.60   45.47   50.73    1.15    0.02    0.02    0.77    0.00     0.44    0.01    0.08    0.00

 2010 1373.52  401.94   89.40  248.46  307.01    0.00  112.94  601.02 1075.43  751.46   85.12    0.67    1.06   30.72   23.81    52.66    0.05    6.50    0.00
1
    SWAT Dec 11 2014    VER 2012/Rev 635                                            

    General Input/Output section (file.cio):                                        
    2020/9/9 0:00:00 ARCGIS-SWAT interface AV                                       
                                                                                    
Annual Summary for Watershed in year    2 of simulation

UNIT                                    PERCO    TILE                           WATER     SED     NO3     NO3     NO3     NO3        N       P       P
TIME     PREC    SURQ    LATQ     GWQ    LATE       Q     SW       ET     PET   YIELD   YIELD    SURQ    LATQ    PERC    CROP  ORGANIC SOLUBLE ORGANIC TILENO3
         (mm)    (mm)    (mm)    (mm)    (mm)    (mm)    (mm)    (mm)    (mm)    (mm)    (mm)   ------------------(kg nutrient/ha)-------------------- (kg/ha)
    1   36.25    2.03    3.64   15.77   14.95    0.00  114.84   14.39   27.71   22.28    0.07    0.00    0.01    0.38    0.00     0.06    0.00    0.01    0.00
    2   29.69    3.02    2.74   13.99    4.78    0.00  111.71   23.95   50.70   20.49    0.17    0.00    0.01    0.10    0.00     0.13    0.00    0.02    0.00
    3   78.41   16.32    5.43   15.16   24.16    0.00  107.07   36.90   74.52   37.74    1.47    0.01    0.02    0.59    0.00     1.00    0.00    0.13    0.00
    4  131.27   48.88    6.03   15.48   20.10    0.00  110.38   51.95  108.80   71.19   10.73    0.42    0.02    0.41    3.35     4.91    0.01    0.63    0.00
    5   62.10    8.62    4.90   15.90    5.18    0.00   93.47   63.89  137.90   30.28    0.87    0.22    0.02    0.09   10.38     0.34    0.00    0.05    0.00
    6  350.63  150.92   18.57   23.83   81.83    0.00  110.85   74.24  113.38  194.25   10.29    0.08    0.03    1.79    2.30     2.71    0.01    0.37    0.00
    7   75.20   19.71    9.61   36.76   11.58    0.00   63.40   87.88  163.46   67.41    0.26    0.03    0.01    0.02    4.48     0.07    0.00    0.01    0.00
    8   85.38   12.90    4.87   22.94    1.64    0.00   63.63   67.97  141.72   41.98    0.14    0.02    0.00    0.01    0.81     0.06    0.00    0.01    0.00
    9   35.93    1.24    1.75    6.35    0.00    0.00   65.31   32.90   96.30   10.36    0.01    0.02    0.00    0.00    0.13     0.01    0.00    0.00    0.00
   10   72.64    8.45    3.42    1.44    1.13    0.00   91.06   34.13   75.12   14.18    0.10    0.02    0.00    0.04    0.01     0.06    0.00    0.01    0.00
   11   35.34    3.67    2.06    0.99    1.09    0.00   97.97   22.62   57.89    7.29    0.04    0.01    0.00    0.04    0.00     0.02    0.00    0.00    0.00
   12   20.65    0.67    1.95    1.20    1.60    0.00   97.66   18.19   37.13    4.38    0.01    0.00    0.00    0.05    0.00     0.01    0.00    0.00    0.00

 2011 1013.50  276.43   64.95  169.82  168.04    0.00   97.66  529.02 1084.63  521.82   24.17    0.84    0.14    3.52   21.45     9.38    0.03    1.25    0.00
1
    SWAT Dec 11 2014    VER 2012/Rev 635                                            

    General Input/Output section (file.cio):                                        
    2020/9/9 0:00:00 ARCGIS-SWAT interface AV                                       
                                                                                    
Annual Summary for Watershed in year    3 of simulation

UNIT                                    PERCO    TILE                           WATER     SED     NO3     NO3     NO3     NO3        N       P       P
TIME     PREC    SURQ    LATQ     GWQ    LATE       Q     SW       ET     PET   YIELD   YIELD    SURQ    LATQ    PERC    CROP  ORGANIC SOLUBLE ORGANIC TILENO3
         (mm)    (mm)    (mm)    (mm)    (mm)    (mm)    (mm)    (mm)    (mm)    (mm)    (mm)   ------------------(kg nutrient/ha)-------------------- (kg/ha)
    1   83.12   15.96    5.37    3.77   28.01    0.00  113.03   15.92   27.40   25.54    0.62    0.01    0.02    0.96    0.00     0.51    0.00    0.07    0.00
    2   95.72   29.82    6.67   14.62   31.27    0.00  116.10   23.56   36.07   51.65    2.23    0.01    0.02    0.85    0.00     1.47    0.00    0.20    0.00
    3  174.78   56.02   14.02   33.67   65.50    0.00  114.63   38.23   69.61  104.62    5.97    0.01    0.03    1.30    0.00     3.47    0.01    0.46    0.00
    4  229.16   82.50   14.90   41.66   68.41    0.00  116.67   57.32  100.69  140.11   13.13    0.61    0.03    1.34    2.55     5.77    0.01    0.75    0.00
    5  327.92  140.64   21.89   57.48   93.89    0.00  114.15   70.63  110.26  222.03   20.49    0.54    0.08    3.79   11.69     5.03    0.01    0.66    0.00
    6  183.43   66.35   14.71   65.61   36.79    0.00  104.58   78.02  122.63  148.94    4.62    0.04    0.03    0.53    2.48     0.61    0.00    0.08    0.00
    7  160.15   69.42   10.75   51.36   17.92    0.00   82.68   87.03  164.16  133.92    1.47    0.06    0.02    0.11    4.75     0.29    0.00    0.04    0.00
    8   75.64    5.50    5.19   30.98    1.07    0.00   80.81   69.03  135.59   43.82    0.07    0.01    0.01    0.01    0.66     0.02    0.00    0.00    0.00
    9   96.93   23.39    4.02   10.71    4.66    0.00   98.73   47.37  108.69   39.82    0.27    0.05    0.00    0.08    0.14     0.13    0.00    0.03    0.00
   10   44.13    6.50    2.27    4.01    1.08    0.00  106.15   28.17   82.59   14.16    0.17    0.01    0.00    0.03    0.01     0.04    0.00    0.01    0.00
   11  136.39   34.65    9.54    8.50   52.16    0.00  116.40   25.98   46.05   53.80    1.02    0.04    0.02    1.19    0.00     0.23    0.01    0.05    0.00
   12   75.32   13.26    7.42   23.46   35.08    0.00  116.46   19.05   32.72   45.36    0.52    0.01    0.02    0.84    0.00     0.16    0.00    0.03    0.00

 2012 1682.69  544.02  116.76  345.83  435.82    0.00  116.46  560.30 1036.45 1023.76   50.56    1.38    0.28   11.03   22.28    17.74    0.05    2.38    0.00
1
    SWAT Dec 11 2014    VER 2012/Rev 635                                            

    General Input/Output section (file.cio):                                        
    2020/9/9 0:00:00 ARCGIS-SWAT interface AV                                       
                                                                                    
Annual Summary for Watershed in year    4 of simulation

UNIT                                    PERCO    TILE                           WATER     SED     NO3     NO3     NO3     NO3        N       P       P
TIME     PREC    SURQ    LATQ     GWQ    LATE       Q     SW       ET     PET   YIELD   YIELD    SURQ    LATQ    PERC    CROP  ORGANIC SOLUBLE ORGANIC TILENO3
         (mm)    (mm)    (mm)    (mm)    (mm)    (mm)    (mm)    (mm)    (mm)    (mm)    (mm)   ------------------(kg nutrient/ha)-------------------- (kg/ha)
    1   21.36    0.61    4.84   28.09    5.35    0.00  112.32   19.09   36.23   34.88    0.02    0.00    0.01    0.13    0.00     0.02    0.00    0.00    0.00
    2   89.14   13.68    6.53   21.42   39.51    0.00  115.63   23.43   36.74   42.78    1.09    0.01    0.02    0.89    0.00     0.57    0.00    0.08    0.00
    3  131.01   35.54   10.30   29.02   44.81    0.00  111.04   44.05   87.13   76.22    5.42    0.01    0.02    0.81    0.00     2.54    0.00    0.33    0.00
    4  172.98   70.45    9.83   35.31   36.89    0.00  114.92   50.98   96.16  116.98    9.39    0.84    0.04    0.98    7.49     3.72    0.01    0.49    0.00
    5  173.71   69.18   11.31   37.41   30.81    0.00  104.45   74.37  128.45  119.66    7.79    0.07    0.04    1.32    8.83     2.10    0.00    0.29    0.00
    6  194.55   73.44    7.34   28.88   26.30    0.00  109.46   79.15  138.25  111.22    2.03    0.01    0.01    0.29    3.12     0.42    0.00    0.06    0.00
    7   61.27   17.09    8.08   23.24    2.30    0.00   59.28   91.58  184.46   49.96    0.42    0.05    0.01    0.01    3.91     0.06    0.00    0.01    0.00
    8   92.73   18.55    4.37    9.30    0.16    0.00   67.13   62.49  160.08   33.53    0.17    0.03    0.00    0.01    0.33     0.09    0.00    0.02    0.00
    9   56.97    3.42    3.68    1.81    0.26    0.00   73.11   46.22  110.24    9.92    0.03    0.02    0.00    0.02    0.05     0.02    0.00    0.01    0.00
   10    4.74    0.01    0.92    0.28    0.00    0.00   60.36   19.43   96.35    2.01    0.00    0.00    0.00    0.00    0.00     0.00    0.00    0.00    0.00
   11   91.33   19.04    4.28    0.77    6.23    0.00  101.41   19.33   54.70   24.68    0.50    0.04    0.01    0.23    0.00     0.20    0.00    0.04    0.00
   12   30.78    4.76    3.19    3.23    6.40    0.00  102.61   16.72   44.71   11.69    0.22    0.01    0.01    0.24    0.00     0.08    0.00    0.01    0.00

 2013 1120.57  325.77   74.69  218.77  199.02    0.00  102.61  546.84 1173.52  633.52   27.08    1.09    0.18    4.91   23.73     9.83    0.03    1.33    0.00
1
    SWAT Dec 11 2014    VER 2012/Rev 635                                            

    General Input/Output section (file.cio):                                        
    2020/9/9 0:00:00 ARCGIS-SWAT interface AV                                       
                                                                                    
Annual Summary for Watershed in year    5 of simulation

UNIT                                    PERCO    TILE                           WATER     SED     NO3     NO3     NO3     NO3        N       P       P
TIME     PREC    SURQ    LATQ     GWQ    LATE       Q     SW       ET     PET   YIELD   YIELD    SURQ    LATQ    PERC    CROP  ORGANIC SOLUBLE ORGANIC TILENO3
         (mm)    (mm)    (mm)    (mm)    (mm)    (mm)    (mm)    (mm)    (mm)    (mm)    (mm)   ------------------(kg nutrient/ha)-------------------- (kg/ha)
    1   11.64    0.29    1.13    4.02    0.09    0.00   96.86   17.73   51.45    5.87    0.01    0.00    0.00    0.00    0.00     0.01    0.00    0.00    0.00
    2   94.99   14.42    3.77    3.06   31.13    0.00  116.10   21.53   39.88   21.54    1.66    0.01    0.01    1.28    0.00     0.97    0.00    0.13    0.00
    3  223.00   84.32   15.91   23.31   77.35    0.00  114.80   43.00   74.25  124.21   18.57    0.01    0.05    2.06    0.00     7.52    0.01    0.97    0.00
    4   86.39   13.55    9.63   38.70   22.56    0.00  108.97   50.30   98.85   62.96    1.89    0.50    0.04    0.88    9.11     0.66    0.00    0.09    0.00
    5  291.62  120.13   17.01   42.54   74.01    0.00  111.57   73.42  115.88  181.06   15.72    0.09    0.06    2.88    7.84     3.49    0.01    0.47    0.00
    6  186.71   71.39   12.17   47.31   30.48    0.00  107.94   77.52  122.64  132.55    2.93    0.01    0.02    0.28    2.83     0.49    0.00    0.07    0.00
    7  253.43  114.68   15.72   46.66   48.26    0.00   93.73   89.16  144.85  178.95    3.37    0.13    0.01    0.28    4.48     0.52    0.01    0.07    0.00
    8  141.34   50.29    9.15   39.34   15.98    0.00   93.20   68.68  126.65  100.78    0.73    0.02    0.01    0.07    0.54     0.17    0.00    0.02    0.00
    9   30.43    1.69    3.10   22.83    0.01    0.00   79.75   42.77  111.59   29.32    0.02    0.01    0.00    0.00    0.09     0.01    0.00    0.00    0.00
   10   52.59    6.93    1.10    5.82    0.97    0.00  104.09   18.77  101.49   15.17    0.15    0.05    0.00    0.04    0.00     0.05    0.00    0.01    0.00
   11   73.30   11.45    5.13    3.63   17.96    0.00  116.24   25.84   48.18   21.39    0.30    0.01    0.01    0.54    0.00     0.09    0.00    0.02    0.00
   12   15.58    0.33    3.89    8.93    3.36    0.00  106.85   21.22   44.96   14.13    0.01    0.00    0.01    0.10    0.00     0.00    0.00    0.00    0.00

 2014 1461.03  489.47   97.70  286.15  322.16    0.00  106.85  549.94 1080.67  887.95   45.36    0.85    0.24    8.41   24.90    13.97    0.04    1.85    0.00
1
    SWAT Dec 11 2014    VER 2012/Rev 635                                            

    General Input/Output section (file.cio):                                        
    2020/9/9 0:00:00 ARCGIS-SWAT interface AV                                       
                                                                                    
Annual Summary for Watershed in year    6 of simulation

UNIT                                    PERCO    TILE                           WATER     SED     NO3     NO3     NO3     NO3        N       P       P
TIME     PREC    SURQ    LATQ     GWQ    LATE       Q     SW       ET     PET   YIELD   YIELD    SURQ    LATQ    PERC    CROP  ORGANIC SOLUBLE ORGANIC TILENO3
         (mm)    (mm)    (mm)    (mm)    (mm)    (mm)    (mm)    (mm)    (mm)    (mm)    (mm)   ------------------(kg nutrient/ha)-------------------- (kg/ha)
    1   23.51    0.29    1.14    6.97    0.61    0.00  111.04   17.93   42.37    9.21    0.01    0.00    0.00    0.01    0.00     0.01    0.00    0.00    0.00
    2   89.07   13.57    3.96    3.57   34.39    0.00  117.62   25.70   48.90   21.59    1.47    0.01    0.01    1.16    0.00     0.75    0.00    0.10    0.00
    3  150.55   44.47   13.50   21.15   56.83    0.00  113.63   39.16   61.08   80.03    9.38    0.01    0.04    1.61    0.00     3.75    0.00    0.49    0.00
    4   96.66   31.96    9.00   35.65   20.80    0.00  104.41   47.73  100.25   77.78    5.16    0.53    0.03    0.56    7.08     2.17    0.00    0.29    0.00
    5  233.89   81.27   14.14   36.52   62.88    0.00  109.60   65.36  103.34  133.30   10.33    0.84    0.05    2.19   10.23     2.55    0.00    0.35    0.00
    6  250.60  112.13   17.61   45.49   61.67    0.00   92.48   76.11  126.14  176.86    7.90    0.01    0.03    1.46    2.90     1.16    0.01    0.16    0.00
    7  118.88   27.98    8.08   45.25   11.09    0.00   94.65   71.51  132.26   83.20    0.42    0.06    0.01    0.05    4.78     0.11    0.00    0.01    0.00
    8   86.86   26.35    5.04   27.62    2.51    0.00   84.84   66.12  145.76   60.75    0.34    0.03    0.01    0.03    0.68     0.11    0.00    0.01    0.00
    9   73.11   13.31    2.80    9.28    0.87    0.00   97.72   44.10  109.62   26.79    0.14    0.04    0.00    0.03    0.12     0.11    0.00    0.03    0.00
   10   53.84    7.52    3.16    3.46    4.04    0.00  105.72   32.23   94.04   15.27    0.08    0.05    0.01    0.10    0.01     0.05    0.00    0.01    0.00
   11  154.05   43.83   11.36   11.28   60.10    0.00  115.48   25.16   41.01   67.47    1.15    0.03    0.03    1.75    0.00     0.34    0.01    0.06    0.00
   12   79.18   18.65    9.26   32.95   33.98    0.00  113.33   20.92   34.51   62.14    0.78    0.02    0.02    0.84    0.00     0.20    0.00    0.03    0.00

 2015 1410.20  421.31   99.04  279.18  349.75    0.00  113.33  532.02 1039.26  814.40   37.16    1.62    0.25    9.80   25.80    11.32    0.04    1.55    0.00
    1    0.13    0.00    0.12    1.10    0.00    0.00  112.83    0.67    1.53    1.26    0.00    0.00    0.00    0.00    0.00     0.00    0.00    0.00    0.00

 2015    0.13    0.00    0.12    1.10    0.00    0.00  112.83    0.67    1.53    1.26    0.00    0.00    0.00    0.00    0.00     0.00    0.00    0.00    0.00
1
    SWAT Dec 11 2014    VER 2012/Rev 635                                            

    General Input/Output section (file.cio):                                        
    2020/9/9 0:00:00 ARCGIS-SWAT interface AV                                       
                                                                                    
    FINAL VALUES

1
    SWAT Dec 11 2014    VER 2012/Rev 635                                            

    General Input/Output section (file.cio):                                        
    2020/9/9 0:00:00 ARCGIS-SWAT interface AV                                       
                                                                                    
                                            Average Plant Values (kg/ha)

  HRU       1 SUB   1 FRST  Yld =  3086.5 BIOM =   5084.9
  HRU       2 SUB   1 FRST  Yld =  3004.3 BIOM =   4974.3
  HRU       3 SUB   1 FRST  Yld =  3222.0 BIOM =   5282.8
  HRU       4 SUB   1 FRST  Yld =  4488.7 BIOM =   7439.2
  HRU       5 SUB   1 FRST  Yld =  4581.8 BIOM =   7554.4
  HRU       6 SUB   1 FRST  Yld =  4520.7 BIOM =   7470.2
  HRU       7 SUB   1 FRST  Yld =  4201.4 BIOM =   6770.3
  HRU       8 SUB   1 FRST  Yld =  3805.4 BIOM =   6187.5
  HRU       9 SUB   1 FRST  Yld =  4033.5 BIOM =   6519.8
  HRU      10 SUB   1 FRST  Yld =  4645.2 BIOM =   7473.8
  HRU      11 SUB   1 FRST  Yld =  4535.4 BIOM =   7310.7
  HRU      12 SUB   1 FRST  Yld =  4764.9 BIOM =   7657.2
  HRU      13 SUB   1 FRST  Yld =  2394.5 BIOM =   3956.2
  HRU      14 SUB   1 FRST  Yld =  2826.4 BIOM =   4584.5
  HRU      15 SUB   1 FRST  Yld =  2591.0 BIOM =   4240.3
  HRU      16 SUB   1 PAST  Yld =     8.6 BIOM =   1451.5
  HRU      17 SUB   1 PAST  Yld =     8.2 BIOM =   1468.4
  HRU      18 SUB   1 PAST  Yld =     8.1 BIOM =   1583.7
  HRU      19 SUB   1 PAST  Yld =     7.7 BIOM =   1373.3
  HRU      20 SUB   1 PAST  Yld =     8.3 BIOM =   1426.4
  HRU      21 SUB   1 PAST  Yld =     7.2 BIOM =   1381.5
  HRU      22 SUB   1 PAST  Yld =     5.3 BIOM =    729.1
  HRU      23 SUB   1 PAST  Yld =     6.7 BIOM =    837.0
  HRU      24 SUB   1 PAST  Yld =     5.9 BIOM =    759.4
  HRU      25 SUB   2 RICE  Yld =  3085.3 BIOM =   7984.5
  HRU      26 SUB   2 RICE  Yld =  3085.3 BIOM =   7984.9
  HRU      27 SUB   2 RICE  Yld =  3097.3 BIOM =   8015.2
  HRU      28 SUB   2 RICE  Yld =  3085.7 BIOM =   7985.1
  HRU      29 SUB   2 RICE  Yld =  3083.4 BIOM =   7979.2
  HRU      30 SUB   2 RICE  Yld =  3088.2 BIOM =   7991.2
  HRU      31 SUB   2 RICE  Yld =  3087.9 BIOM =   7990.7
  HRU      32 SUB   2 RICE  Yld =  3091.9 BIOM =   8001.0
  HRU      33 SUB   2 AGRC  Yld =  3713.5 BIOM =  12006.4
  HRU      34 SUB   2 AGRC  Yld =  3685.1 BIOM =  11914.7
  HRU      35 SUB   2 AGRC  Yld =  3716.9 BIOM =  12017.4
  HRU      36 SUB   2 AGRC  Yld =  3710.5 BIOM =  11996.8
  HRU      37 SUB   2 AGRC  Yld =  3713.7 BIOM =  12006.9
  HRU      38 SUB   2 FRST  Yld =  3837.3 BIOM =   6179.4
  HRU      39 SUB   2 FRST  Yld =  3482.6 BIOM =   5651.6
  HRU      40 SUB   2 FRST  Yld =  3147.9 BIOM =   5161.9
  HRU      41 SUB   2 FRST  Yld =  3098.1 BIOM =   5102.1
  HRU      42 SUB   2 FRST  Yld =  3225.2 BIOM =   5287.8
  HRU      43 SUB   2 FRST  Yld =  3009.3 BIOM =   4981.9
  HRU      44 SUB   2 FRST  Yld =  4523.5 BIOM =   7474.3
  HRU      45 SUB   2 FRST  Yld =  4491.5 BIOM =   7443.3
  HRU      46 SUB   2 FRST  Yld =  4585.2 BIOM =   7559.2
  HRU      47 SUB   2 FRST  Yld =  4047.5 BIOM =   6540.1
  HRU      48 SUB   2 FRST  Yld =  3810.6 BIOM =   6194.8
  HRU      49 SUB   2 FRST  Yld =  4231.0 BIOM =   6814.3
  HRU      50 SUB   2 FRST  Yld =  4639.3 BIOM =   7463.5
  HRU      51 SUB   2 FRST  Yld =  4536.6 BIOM =   7311.7
  HRU      52 SUB   2 FRST  Yld =  4774.7 BIOM =   7670.6
  HRU      53 SUB   2 FRST  Yld =  6630.6 BIOM =  10870.1
  HRU      54 SUB   2 FRST  Yld =  6429.5 BIOM =  10559.8
  HRU      55 SUB   2 FRST  Yld =  6806.4 BIOM =  11148.1
  HRU      56 SUB   2 FRST  Yld =  3499.0 BIOM =   5637.5
  HRU      57 SUB   2 FRST  Yld =  3750.7 BIOM =   6007.1
  HRU      58 SUB   2 FRST  Yld =  3904.4 BIOM =   6238.4
  HRU      59 SUB   2 PAST  Yld =     6.5 BIOM =   1056.4
  HRU      60 SUB   2 PAST  Yld =     7.4 BIOM =   1146.9
  HRU      61 SUB   2 PAST  Yld =     8.4 BIOM =   1249.4
  HRU      62 SUB   2 PAST  Yld =     7.1 BIOM =   1394.6
  HRU      63 SUB   2 PAST  Yld =     7.7 BIOM =   1397.0
  HRU      64 SUB   2 PAST  Yld =     8.4 BIOM =   1455.7
  HRU      65 SUB   2 PAST  Yld =    10.3 BIOM =   2070.0
  HRU      66 SUB   2 PAST  Yld =    10.0 BIOM =   2063.1
  HRU      67 SUB   3 AGRC  Yld =  3711.3 BIOM =  11999.4
  HRU      68 SUB   3 AGRC  Yld =  3703.2 BIOM =  11973.4
  HRU      69 SUB   3 AGRC  Yld =  3704.3 BIOM =  11976.8
  HRU      70 SUB   3 AGRC  Yld =  3712.3 BIOM =  12002.5
  HRU      71 SUB   3 AGRC  Yld =  3708.1 BIOM =  11988.8
  HRU      72 SUB   3 AGRC  Yld =  3709.7 BIOM =  11994.0
  HRU      73 SUB   3 FRST  Yld =  3147.5 BIOM =   5162.4
  HRU      74 SUB   3 FRST  Yld =  3736.6 BIOM =   6032.9
  HRU      75 SUB   3 FRST  Yld =  3421.6 BIOM =   5564.9
  HRU      76 SUB   3 FRST  Yld =  3082.5 BIOM =   5079.6
  HRU      77 SUB   3 FRST  Yld =  3218.7 BIOM =   5278.2
  HRU      78 SUB   3 FRST  Yld =  3003.3 BIOM =   4972.7
  HRU      79 SUB   3 FRST  Yld =  4193.8 BIOM =   6759.7
  HRU      80 SUB   3 FRST  Yld =  4032.5 BIOM =   6519.2
  HRU      81 SUB   3 FRST  Yld =  3805.3 BIOM =   6187.5
  HRU      82 SUB   3 FRST  Yld =  4755.8 BIOM =   7643.8
  HRU      83 SUB   3 FRST  Yld =  4531.7 BIOM =   7304.5
  HRU      84 SUB   3 FRST  Yld =  4624.6 BIOM =   7443.1
  HRU      85 SUB   3 FRST  Yld =  2393.4 BIOM =   3954.3
  HRU      86 SUB   3 FRST  Yld =  2822.6 BIOM =   4579.0
  HRU      87 SUB   3 FRST  Yld =  2583.9 BIOM =   4230.1
  HRU      88 SUB   3 PAST  Yld =     5.8 BIOM =    967.3
  HRU      89 SUB   3 PAST  Yld =     6.2 BIOM =    940.1
  HRU      90 SUB   3 PAST  Yld =     6.7 BIOM =    978.7
  HRU      91 SUB   4 RICE  Yld =  3101.8 BIOM =   8021.5
  HRU      92 SUB   4 RICE  Yld =  3082.2 BIOM =   7971.1
  HRU      93 SUB   4 RICE  Yld =  3082.9 BIOM =   7972.9
  HRU      94 SUB   4 RICE  Yld =  3089.5 BIOM =   7988.6
  HRU      95 SUB   4 RICE  Yld =  3090.1 BIOM =   7990.0
  HRU      96 SUB   4 RICE  Yld =  3098.4 BIOM =   8011.6
  HRU      97 SUB   4 AGRC  Yld =  3715.7 BIOM =  12013.5
  HRU      98 SUB   4 AGRC  Yld =  3716.0 BIOM =  12014.4
  HRU      99 SUB   4 AGRC  Yld =  3682.8 BIOM =  11907.2
  HRU     100 SUB   4 AGRC  Yld =  3703.7 BIOM =  11975.0
  HRU     101 SUB   4 AGRC  Yld =  3711.2 BIOM =  11999.1
  HRU     102 SUB   4 AGRC  Yld =  3704.3 BIOM =  11976.7
  HRU     103 SUB   4 AGRC  Yld =  3708.8 BIOM =  11991.3
  HRU     104 SUB   4 AGRC  Yld =  3712.0 BIOM =  12001.5
  HRU     105 SUB   4 AGRC  Yld =  3707.3 BIOM =  11986.2
  HRU     106 SUB   4 FRST  Yld =  3445.8 BIOM =   5598.6
  HRU     107 SUB   4 FRST  Yld =  3762.8 BIOM =   6069.1
  HRU     108 SUB   4 FRST  Yld =  3144.2 BIOM =   5157.7
  HRU     109 SUB   4 FRST  Yld =  3081.1 BIOM =   5077.7
  HRU     110 SUB   4 FRST  Yld =  3210.9 BIOM =   5266.9
  HRU     111 SUB   4 FRST  Yld =  3005.3 BIOM =   4976.3
  HRU     112 SUB   4 FRST  Yld =  4622.5 BIOM =   7438.6
  HRU     113 SUB   4 FRST  Yld =  4763.8 BIOM =   7654.6
  HRU     114 SUB   4 FRST  Yld =  4527.9 BIOM =   7298.4
  HRU     115 SUB   4 PAST  Yld =     5.9 BIOM =    973.4
  HRU     116 SUB   4 PAST  Yld =     6.6 BIOM =    985.2
  HRU     117 SUB   4 PAST  Yld =     6.2 BIOM =    949.9
  HRU     118 SUB   4 BERM  Yld = 13803.7 BIOM =  19713.9
  HRU     119 SUB   4 BERM  Yld = 15235.3 BIOM =  21806.4
  HRU     120 SUB   4 BERM  Yld = 13149.9 BIOM =  18754.2
  HRU     121 SUB   4 BERM  Yld = 13149.0 BIOM =  18753.4
  HRU     122 SUB   4 BERM  Yld = 13871.6 BIOM =  19812.9
  HRU     123 SUB   5 AGRC  Yld =  3684.8 BIOM =  11913.9
  HRU     124 SUB   5 AGRC  Yld =  3688.5 BIOM =  11925.7
  HRU     125 SUB   5 AGRC  Yld =  3699.8 BIOM =  11962.3
  HRU     126 SUB   5 AGRC  Yld =  3719.1 BIOM =  12024.6
  HRU     127 SUB   5 AGRC  Yld =  3717.7 BIOM =  12020.1
  HRU     128 SUB   5 AGRC  Yld =  3707.3 BIOM =  11986.4
  HRU     129 SUB   5 FRST  Yld =  3310.5 BIOM =   5404.2
  HRU     130 SUB   5 FRST  Yld =  3132.8 BIOM =   5145.0
  HRU     131 SUB   5 FRST  Yld =  3030.9 BIOM =   5004.0
  HRU     132 SUB   5 FRST  Yld =  3916.0 BIOM =   6347.0
  HRU     133 SUB   5 FRST  Yld =  4173.0 BIOM =   6728.5
  HRU     134 SUB   5 FRST  Yld =  4334.9 BIOM =   6972.8
  HRU     135 SUB   5 FRST  Yld =  4685.4 BIOM =   7534.5
  HRU     136 SUB   5 FRST  Yld =  4649.8 BIOM =   7484.1
  HRU     137 SUB   5 FRST  Yld =  4884.3 BIOM =   7843.1
  HRU     138 SUB   5 FRST  Yld =  2424.1 BIOM =   3993.1
  HRU     139 SUB   5 FRST  Yld =  2941.4 BIOM =   4744.7
  HRU     140 SUB   5 FRST  Yld =  2668.8 BIOM =   4345.3
  HRU     141 SUB   5 PAST  Yld =     8.1 BIOM =   1032.8
  HRU     142 SUB   5 PAST  Yld =     7.3 BIOM =    991.5
  HRU     143 SUB   5 PAST  Yld =     7.6 BIOM =    982.3
  HRU     144 SUB   5 PAST  Yld =     8.1 BIOM =    870.4
  HRU     145 SUB   5 PAST  Yld =     7.5 BIOM =    811.3
  HRU     146 SUB   5 PAST  Yld =     6.8 BIOM =    770.2
  HRU     147 SUB   6 RICE  Yld =  3081.3 BIOM =   7967.8
  HRU     148 SUB   6 RICE  Yld =  3081.1 BIOM =   7967.5
  HRU     149 SUB   6 RICE  Yld =  3090.3 BIOM =   7990.5
  HRU     150 SUB   6 RICE  Yld =  3091.4 BIOM =   7993.2
  HRU     151 SUB   6 FRST  Yld =  3078.3 BIOM =   5073.9
  HRU     152 SUB   6 FRST  Yld =  3006.5 BIOM =   4978.3
  HRU     153 SUB   6 FRST  Yld =  3214.5 BIOM =   5272.5
  HRU     154 SUB   6 FRST  Yld =  3951.0 BIOM =   6491.7
  HRU     155 SUB   6 FRST  Yld =  4631.0 BIOM =   7510.4
  HRU     156 SUB   6 FRST  Yld =  4291.6 BIOM =   6998.6
  HRU     157 SUB   6 FRST  Yld =  4033.0 BIOM =   6519.3
  HRU     158 SUB   6 FRST  Yld =  4212.9 BIOM =   6787.7
  HRU     159 SUB   6 FRST  Yld =  3803.8 BIOM =   6184.7
  HRU     160 SUB   6 FRST  Yld =  4532.2 BIOM =   7305.3
  HRU     161 SUB   6 FRST  Yld =  4562.3 BIOM =   7347.2
  HRU     162 SUB   6 FRST  Yld =  2589.2 BIOM =   4237.6
  HRU     163 SUB   6 FRST  Yld =  2836.2 BIOM =   4598.9
  HRU     164 SUB   6 FRST  Yld =  2392.9 BIOM =   3953.6
  HRU     165 SUB   7 AGRC  Yld =  3712.3 BIOM =  12002.3
  HRU     166 SUB   7 FRST  Yld =  4769.9 BIOM =   7668.0
  HRU     167 SUB   7 FRST  Yld =  4527.7 BIOM =   7298.5
  HRU     168 SUB   7 FRST  Yld =  4547.2 BIOM =   7324.5
  HRU     169 SUB   8 RICE  Yld =  3082.8 BIOM =   7978.3
  HRU     170 SUB   8 RICE  Yld =  3102.9 BIOM =   8029.8
  HRU     171 SUB   8 RICE  Yld =  3085.4 BIOM =   7984.9
  HRU     172 SUB   8 RICE  Yld =  3087.3 BIOM =   7988.4
  HRU     173 SUB   8 RICE  Yld =  3084.1 BIOM =   7980.1
  HRU     174 SUB   8 RICE  Yld =  3090.2 BIOM =   7995.6
  HRU     175 SUB   8 AGRC  Yld =  3715.9 BIOM =  12014.1
  HRU     176 SUB   8 AGRC  Yld =  3715.8 BIOM =  12013.8
  HRU     177 SUB   8 AGRC  Yld =  3682.0 BIOM =  11904.8
  HRU     178 SUB   8 AGRC  Yld =  3703.7 BIOM =  11974.9
  HRU     179 SUB   8 AGRC  Yld =  3710.7 BIOM =  11997.4
  HRU     180 SUB   8 AGRC  Yld =  3704.3 BIOM =  11976.9
  HRU     181 SUB   8 AGRC  Yld =  3712.1 BIOM =  12001.8
  HRU     182 SUB   8 FRST  Yld =  3446.2 BIOM =   5598.8
  HRU     183 SUB   8 FRST  Yld =  3751.1 BIOM =   6051.2
  HRU     184 SUB   8 FRST  Yld =  3142.4 BIOM =   5154.7
  HRU     185 SUB   8 FRST  Yld =  3001.1 BIOM =   4969.2
  HRU     186 SUB   8 FRST  Yld =  3069.9 BIOM =   5061.8
  HRU     187 SUB   8 FRST  Yld =  3196.8 BIOM =   5246.8
  HRU     188 SUB   8 FRST  Yld =  4751.4 BIOM =   7636.5
  HRU     189 SUB   8 FRST  Yld =  4555.3 BIOM =   7334.8
  HRU     190 SUB   8 FRST  Yld =  4526.7 BIOM =   7296.5
  HRU     191 SUB   9 RICE  Yld =  3080.7 BIOM =   7967.7
  HRU     192 SUB   9 RICE  Yld =  3102.4 BIOM =   8023.2
  HRU     193 SUB   9 RICE  Yld =  3081.9 BIOM =   7971.0
  HRU     194 SUB   9 RICE  Yld =  3067.1 BIOM =   7930.8
  HRU     195 SUB   9 RICE  Yld =  3067.7 BIOM =   7932.4
  HRU     196 SUB   9 AGRC  Yld =  3674.1 BIOM =  11879.4
  HRU     197 SUB   9 AGRC  Yld =  3705.6 BIOM =  11981.0
  HRU     198 SUB   9 AGRC  Yld =  3690.9 BIOM =  11933.7
  HRU     199 SUB   9 FRST  Yld =  3225.9 BIOM =   5271.6
  HRU     200 SUB   9 FRST  Yld =  3540.1 BIOM =   5735.0
  HRU     201 SUB   9 FRST  Yld =  3124.2 BIOM =   5133.1
  HRU     202 SUB   9 FRST  Yld =  3299.4 BIOM =   5388.5
  HRU     203 SUB   9 FRST  Yld =  3032.3 BIOM =   5006.6
  HRU     204 SUB   9 FRST  Yld =  4648.3 BIOM =   7481.7
  HRU     205 SUB   9 FRST  Yld =  4685.9 BIOM =   7535.0
  HRU     206 SUB   9 FRST  Yld =  4894.9 BIOM =   7858.9
  HRU     207 SUB   9 FRST  Yld =  2654.0 BIOM =   4324.0
  HRU     208 SUB   9 FRST  Yld =  2936.5 BIOM =   4737.8
  HRU     209 SUB   9 FRST  Yld =  2424.5 BIOM =   3994.0
  HRU     210 SUB   9 PAST  Yld =     7.3 BIOM =    992.4
  HRU     211 SUB   9 PAST  Yld =     7.6 BIOM =    981.7
  HRU     212 SUB   9 PAST  Yld =     8.1 BIOM =   1028.8
  HRU     213 SUB   9 PAST  Yld =     6.7 BIOM =    740.4
  HRU     214 SUB   9 PAST  Yld =     8.4 BIOM =    882.9
  HRU     215 SUB   9 PAST  Yld =     7.4 BIOM =    784.9
  HRU     216 SUB  10 RICE  Yld =  3103.9 BIOM =   8032.8
  HRU     217 SUB  10 RICE  Yld =  3073.6 BIOM =   7954.7
  HRU     218 SUB  10 RICE  Yld =  3083.4 BIOM =   7980.3
  HRU     219 SUB  10 RICE  Yld =  3100.0 BIOM =   8022.2
  HRU     220 SUB  10 RICE  Yld =  3096.4 BIOM =   8012.8
  HRU     221 SUB  10 RICE  Yld =  3068.0 BIOM =   7938.7
  HRU     222 SUB  10 RICE  Yld =  3067.0 BIOM =   7936.1
  HRU     223 SUB  10 RICE  Yld =  3072.1 BIOM =   7949.7
  HRU     224 SUB  10 AGRC  Yld =  3688.0 BIOM =  11924.0
  HRU     225 SUB  10 AGRC  Yld =  3700.7 BIOM =  11965.2
  HRU     226 SUB  10 AGRC  Yld =  3696.4 BIOM =  11951.2
  HRU     227 SUB  10 AGRC  Yld =  3686.2 BIOM =  11918.3
  HRU     228 SUB  10 AGRC  Yld =  3688.3 BIOM =  11925.2
  HRU     229 SUB  10 AGRC  Yld =  3710.5 BIOM =  11996.4
  HRU     230 SUB  10 AGRC  Yld =  3705.9 BIOM =  11981.7
  HRU     231 SUB  10 FRST  Yld =  3220.0 BIOM =   5262.3
  HRU     232 SUB  10 FRST  Yld =  3885.5 BIOM =   6249.7
  HRU     233 SUB  10 FRST  Yld =  3570.5 BIOM =   5778.0
  HRU     234 SUB  10 FRST  Yld =  3267.1 BIOM =   5345.5
  HRU     235 SUB  10 FRST  Yld =  3033.2 BIOM =   5008.3
  HRU     236 SUB  10 FRST  Yld =  3055.7 BIOM =   5033.9
  HRU     237 SUB  10 FRST  Yld =  4683.6 BIOM =   7531.8
  HRU     238 SUB  10 FRST  Yld =  4646.8 BIOM =   7479.6
  HRU     239 SUB  10 FRST  Yld =  4880.4 BIOM =   7836.9
  HRU     240 SUB  11 RICE  Yld =  3097.4 BIOM =   8015.5
  HRU     241 SUB  11 RICE  Yld =  3084.0 BIOM =   7981.1
  HRU     242 SUB  11 AGRC  Yld =  3716.9 BIOM =  12017.3
  HRU     243 SUB  11 AGRC  Yld =  3713.3 BIOM =  12005.8
  HRU     244 SUB  11 AGRC  Yld =  3682.3 BIOM =  11905.6
  HRU     245 SUB  11 AGRC  Yld =  3707.2 BIOM =  11986.3
  HRU     246 SUB  11 AGRC  Yld =  3713.3 BIOM =  12005.8
  HRU     247 SUB  11 AGRC  Yld =  3714.2 BIOM =  12008.6
  HRU     248 SUB  11 AGRC  Yld =  3721.6 BIOM =  12032.6
  HRU     249 SUB  11 AGRC  Yld =  3714.7 BIOM =  12010.2
  HRU     250 SUB  11 AGRC  Yld =  3683.1 BIOM =  11908.3
  HRU     251 SUB  11 AGRC  Yld =  3715.9 BIOM =  12014.1
  HRU     252 SUB  11 FRST  Yld =  3463.2 BIOM =   5624.3
  HRU     253 SUB  11 FRST  Yld =  3150.5 BIOM =   5166.5
  HRU     254 SUB  11 FRST  Yld =  3856.0 BIOM =   6209.1
  HRU     255 SUB  11 FRST  Yld =  3011.5 BIOM =   4985.7
  HRU     256 SUB  11 FRST  Yld =  3202.6 BIOM =   5258.5
  HRU     257 SUB  11 FRST  Yld =  3101.8 BIOM =   5112.1
  HRU     258 SUB  11 FRST  Yld =  3812.3 BIOM =   6197.9
  HRU     259 SUB  11 FRST  Yld =  4040.4 BIOM =   6530.9
  HRU     260 SUB  11 FRST  Yld =  4226.4 BIOM =   6808.7
  HRU     261 SUB  11 FRST  Yld =  3209.7 BIOM =   5152.5
  HRU     262 SUB  11 FRST  Yld =  2655.3 BIOM =   4344.7
  HRU     263 SUB  11 FRST  Yld =  2939.0 BIOM =   4754.4
  HRU     264 SUB  11 FRST  Yld =  6429.4 BIOM =  10559.8
  HRU     265 SUB  11 FRST  Yld =  6779.3 BIOM =  11106.6
  HRU     266 SUB  11 FRST  Yld =  6607.5 BIOM =  10834.7
  HRU     267 SUB  11 FRST  Yld =  3499.6 BIOM =   5638.6
  HRU     268 SUB  11 FRST  Yld =  3889.2 BIOM =   6216.3
  HRU     269 SUB  11 FRST  Yld =  3741.9 BIOM =   5994.8
  HRU     270 SUB  11 BERM  Yld = 13750.2 BIOM =  19635.6
  HRU     271 SUB  11 BERM  Yld = 15081.4 BIOM =  21581.1
  HRU     272 SUB  11 BERM  Yld = 12913.0 BIOM =  18406.4
  HRU     273 SUB  11 BERM  Yld = 14952.9 BIOM =  21389.6
  HRU     274 SUB  11 BERM  Yld = 13639.2 BIOM =  19474.1
  HRU     275 SUB  11 BERM  Yld = 12951.8 BIOM =  18464.4
  HRU     276 SUB  12 RICE  Yld =  3098.3 BIOM =   8012.8
  HRU     277 SUB  12 RICE  Yld =  3103.0 BIOM =   8024.9
  HRU     278 SUB  12 RICE  Yld =  3063.8 BIOM =   7922.2
  HRU     279 SUB  12 RICE  Yld =  3066.8 BIOM =   7930.1
  HRU     280 SUB  12 FRST  Yld =  3865.3 BIOM =   6221.0
  HRU     281 SUB  12 FRST  Yld =  3218.6 BIOM =   5260.0
  HRU     282 SUB  12 FRST  Yld =  3359.1 BIOM =   5463.6
  HRU     283 SUB  12 FRST  Yld =  3032.4 BIOM =   5006.3
  HRU     284 SUB  12 FRST  Yld =  3314.3 BIOM =   5409.7
  HRU     285 SUB  12 FRST  Yld =  3149.6 BIOM =   5169.0
  HRU     286 SUB  12 FRST  Yld =  4433.4 BIOM =   7199.7
  HRU     287 SUB  12 FRST  Yld =  4721.8 BIOM =   7637.5
  HRU     288 SUB  12 FRST  Yld =  4029.6 BIOM =   6596.9
  HRU     289 SUB  12 FRST  Yld =  3915.1 BIOM =   6345.3
  HRU     290 SUB  12 FRST  Yld =  4166.7 BIOM =   6717.8
  HRU     291 SUB  12 FRST  Yld =  4348.5 BIOM =   6992.4
  HRU     292 SUB  12 FRST  Yld =  4651.1 BIOM =   7486.1
  HRU     293 SUB  12 FRST  Yld =  4898.0 BIOM =   7863.2
  HRU     294 SUB  12 FRST  Yld =  4759.2 BIOM =   7648.8
  HRU     295 SUB  12 FRST  Yld =  2938.8 BIOM =   4740.9
  HRU     296 SUB  12 FRST  Yld =  2664.9 BIOM =   4339.8
  HRU     297 SUB  12 FRST  Yld =  2424.7 BIOM =   3993.9
  HRU     298 SUB  12 PAST  Yld =     7.3 BIOM =    993.3
  HRU     299 SUB  12 PAST  Yld =     8.1 BIOM =   1034.6
  HRU     300 SUB  12 PAST  Yld =     7.6 BIOM =    983.6
  HRU     301 SUB  12 PAST  Yld =     8.3 BIOM =    888.8
  HRU     302 SUB  12 PAST  Yld =     7.4 BIOM =    790.1
  HRU     303 SUB  12 PAST  Yld =     6.7 BIOM =    746.3
  HRU     304 SUB  13 RICE  Yld =  3083.1 BIOM =   7979.6
  HRU     305 SUB  13 RICE  Yld =  3102.2 BIOM =   8028.4
  HRU     306 SUB  13 RICE  Yld =  3090.2 BIOM =   7997.5
  HRU     307 SUB  13 RICE  Yld =  3067.3 BIOM =   7936.7
  HRU     308 SUB  13 RICE  Yld =  3070.8 BIOM =   7945.9
  HRU     309 SUB  13 FRST  Yld =  3910.0 BIOM =   6286.3
  HRU     310 SUB  13 FRST  Yld =  3555.0 BIOM =   5755.5
  HRU     311 SUB  13 FRST  Yld =  3219.3 BIOM =   5260.8
  HRU     312 SUB  13 FRST  Yld =  4681.1 BIOM =   7528.8
  HRU     313 SUB  13 FRST  Yld =  4894.8 BIOM =   7860.4
  HRU     314 SUB  13 FRST  Yld =  4644.3 BIOM =   7475.4
  HRU     315 SUB  14 RICE  Yld =  3008.6 BIOM =   7776.5
  HRU     316 SUB  14 RICE  Yld =  3009.9 BIOM =   7780.1
  HRU     317 SUB  14 RICE  Yld =  3017.4 BIOM =   7798.9
  HRU     318 SUB  14 RICE  Yld =  3019.1 BIOM =   7803.3
  HRU     319 SUB  14 RICE  Yld =  3024.6 BIOM =   7816.7
  HRU     320 SUB  14 RICE  Yld =  3026.4 BIOM =   7821.3
  HRU     321 SUB  14 FRST  Yld =  1654.3 BIOM =   5739.5
  HRU     322 SUB  14 FRST  Yld =  1608.5 BIOM =   5580.6
  HRU     323 SUB  14 FRST  Yld =  1556.2 BIOM =   5399.0
  HRU     324 SUB  14 FRST  Yld =  1632.8 BIOM =   5664.7
  HRU     325 SUB  14 FRST  Yld =  1503.6 BIOM =   5216.5
  HRU     326 SUB  14 FRST  Yld =  2373.8 BIOM =   8235.5
  HRU     327 SUB  14 FRST  Yld =  2493.3 BIOM =   8650.3
  HRU     328 SUB  14 FRST  Yld =  2347.0 BIOM =   8142.6
  HRU     329 SUB  14 FRST  Yld =  1246.5 BIOM =   4324.5
  HRU     330 SUB  14 PAST  Yld =     7.9 BIOM =   1012.9
  HRU     331 SUB  14 PAST  Yld =     8.1 BIOM =    978.7
  HRU     332 SUB  14 PAST  Yld =     8.6 BIOM =   1024.1
  HRU     333 SUB  14 PAST  Yld =    12.1 BIOM =   2069.5
  HRU     334 SUB  14 PAST  Yld =    12.3 BIOM =   2151.4
  HRU     335 SUB  15 RICE  Yld =  2985.4 BIOM =   7721.3
  HRU     336 SUB  15 RICE  Yld =  3007.9 BIOM =   7779.2
  HRU     337 SUB  15 RICE  Yld =  2978.6 BIOM =   7704.0
  HRU     338 SUB  15 RICE  Yld =  2980.6 BIOM =   7707.3
  HRU     339 SUB  15 RICE  Yld =  2982.8 BIOM =   7713.3
  HRU     340 SUB  15 FRST  Yld =  4555.3 BIOM =   6507.5
  HRU     341 SUB  15 FRST  Yld =  4132.9 BIOM =   5904.1
  HRU     342 SUB  15 FRST  Yld =  3713.2 BIOM =   5304.5
  HRU     343 SUB  15 FRST  Yld =  5335.0 BIOM =   7621.4
  HRU     344 SUB  15 FRST  Yld =  5459.5 BIOM =   7799.3
  HRU     345 SUB  16 FRST  Yld =  5333.3 BIOM =   7619.0
  HRU     346 SUB  17 RICE  Yld =  3004.7 BIOM =   7770.8
  HRU     347 SUB  17 RICE  Yld =  2996.9 BIOM =   7750.4
  HRU     348 SUB  17 RICE  Yld =  2995.9 BIOM =   7747.8
  HRU     349 SUB  17 RICE  Yld =  2965.7 BIOM =   7669.2
  HRU     350 SUB  17 RICE  Yld =  2983.4 BIOM =   7714.9
  HRU     351 SUB  17 RICE  Yld =  2979.9 BIOM =   7705.7
  HRU     352 SUB  17 AGRC  Yld =  3679.8 BIOM =  11898.8
  HRU     353 SUB  17 AGRC  Yld =  3676.9 BIOM =  11889.4
  HRU     354 SUB  17 FRST  Yld =  4189.0 BIOM =   5984.3
  HRU     355 SUB  17 FRST  Yld =  3716.2 BIOM =   5308.9
  HRU     356 SUB  17 FRST  Yld =  4505.2 BIOM =   6436.0
  HRU     357 SUB  17 FRST  Yld =  5606.5 BIOM =   8009.3
  HRU     358 SUB  17 FRST  Yld =  5443.0 BIOM =   7775.7
  HRU     359 SUB  17 FRST  Yld =  5328.0 BIOM =   7611.4
  HRU     360 SUB  18 RICE  Yld =  3101.3 BIOM =   8026.0
  HRU     361 SUB  18 RICE  Yld =  3091.8 BIOM =   8001.6
  HRU     362 SUB  18 AGRC  Yld =  3688.2 BIOM =  11924.7
  HRU     363 SUB  18 AGRC  Yld =  3704.5 BIOM =  11977.6
  HRU     364 SUB  18 AGRC  Yld =  3699.7 BIOM =  11962.0
  HRU     365 SUB  18 AGRC  Yld =  3697.9 BIOM =  11956.1
  HRU     366 SUB  18 AGRC  Yld =  3688.1 BIOM =  11924.4
  HRU     367 SUB  18 AGRC  Yld =  3684.7 BIOM =  11913.4
  HRU     368 SUB  18 AGRC  Yld =  3715.9 BIOM =  12014.3
  HRU     369 SUB  18 AGRC  Yld =  3716.7 BIOM =  12016.8
  HRU     370 SUB  18 AGRC  Yld =  3707.3 BIOM =  11986.3
  HRU     371 SUB  18 FRST  Yld =  3594.7 BIOM =   5813.5
  HRU     372 SUB  18 FRST  Yld =  3220.6 BIOM =   5262.7
  HRU     373 SUB  18 FRST  Yld =  3907.0 BIOM =   6281.3
  HRU     374 SUB  18 FRST  Yld =  3137.5 BIOM =   5152.0
  HRU     375 SUB  18 FRST  Yld =  3289.6 BIOM =   5374.1
  HRU     376 SUB  18 FRST  Yld =  3032.8 BIOM =   5007.5
  HRU     377 SUB  18 FRST  Yld =  4897.5 BIOM =   7862.4
  HRU     378 SUB  18 FRST  Yld =  4647.7 BIOM =   7480.6
  HRU     379 SUB  18 FRST  Yld =  4768.7 BIOM =   7663.2
  HRU     380 SUB  19 RICE  Yld =  2988.8 BIOM =   7729.2
  HRU     381 SUB  19 RICE  Yld =  2994.6 BIOM =   7744.2
  HRU     382 SUB  19 RICE  Yld =  2997.0 BIOM =   7750.5
  HRU     383 SUB  19 AGRC  Yld =  3664.8 BIOM =  11850.5
  HRU     384 SUB  19 AGRC  Yld =  3653.1 BIOM =  11812.8
  HRU     385 SUB  19 AGRC  Yld =  3666.5 BIOM =  11856.0
  HRU     386 SUB  19 FRST  Yld =  3469.1 BIOM =   4955.8
  HRU     387 SUB  19 FRST  Yld =  3396.5 BIOM =   4852.1
  HRU     388 SUB  19 FRST  Yld =  3622.6 BIOM =   5175.2
  HRU     389 SUB  19 FRST  Yld =  5679.5 BIOM =   8113.6
  HRU     390 SUB  19 FRST  Yld =  6732.3 BIOM =   9617.5
  HRU     391 SUB  19 FRST  Yld =  7281.4 BIOM =  10402.1
  HRU     392 SUB  19 FRST  Yld =  5225.0 BIOM =   7464.3
  HRU     393 SUB  19 FRST  Yld =  5091.8 BIOM =   7274.0
  HRU     394 SUB  19 FRST  Yld =  5379.6 BIOM =   7685.2
  HRU     395 SUB  20 AGRC  Yld =  3647.4 BIOM =  11794.0
  HRU     396 SUB  20 AGRC  Yld =  3642.2 BIOM =  11776.9
  HRU     397 SUB  20 AGRC  Yld =  3643.5 BIOM =  11781.1
  HRU     398 SUB  20 FRST  Yld =  3501.4 BIOM =   5002.0
  HRU     399 SUB  20 FRST  Yld =  3400.0 BIOM =   4857.1
  HRU     400 SUB  20 FRST  Yld =  3358.2 BIOM =   4797.5
  HRU     401 SUB  20 FRST  Yld =  6696.8 BIOM =   9566.8
  HRU     402 SUB  20 FRST  Yld =  5495.2 BIOM =   7850.3
  HRU     403 SUB  20 FRST  Yld =  7289.3 BIOM =  10413.3
  HRU     404 SUB  20 FRST  Yld =  4522.4 BIOM =   6460.6
  HRU     405 SUB  20 FRST  Yld =  4288.9 BIOM =   6126.9
  HRU     406 SUB  20 FRST  Yld =  4038.7 BIOM =   5769.5
  HRU     407 SUB  20 FRST  Yld =  3355.9 BIOM =   4794.2
  HRU     408 SUB  20 FRST  Yld =  3085.3 BIOM =   4407.6
  HRU     409 SUB  20 FRST  Yld =  2847.4 BIOM =   4067.8
  HRU     410 SUB  20 FRST  Yld =  7636.5 BIOM =  10909.3
  HRU     411 SUB  20 FRST  Yld =  7143.0 BIOM =  10204.3
  HRU     412 SUB  20 FRST  Yld =  7383.2 BIOM =  10547.4
  HRU     413 SUB  20 FRST  Yld =  4214.9 BIOM =   6021.3
  HRU     414 SUB  20 FRST  Yld =  3981.2 BIOM =   5687.5
  HRU     415 SUB  20 FRST  Yld =  3656.7 BIOM =   5223.9
  HRU     416 SUB  21 RICE  Yld =  3005.5 BIOM =   7771.6
  HRU     417 SUB  21 RICE  Yld =  2997.9 BIOM =   7752.3
  HRU     418 SUB  21 RICE  Yld =  3001.3 BIOM =   7761.3
  HRU     419 SUB  21 RICE  Yld =  2970.3 BIOM =   7680.3
  HRU     420 SUB  21 RICE  Yld =  2987.6 BIOM =   7724.9
  HRU     421 SUB  21 RICE  Yld =  2980.2 BIOM =   7705.6
  HRU     422 SUB  21 FRST  Yld =  3360.0 BIOM =   4800.0
  HRU     423 SUB  21 FRST  Yld =  3404.5 BIOM =   4863.6
  HRU     424 SUB  21 FRST  Yld =  3506.9 BIOM =   5009.9
  HRU     425 SUB  21 FRST  Yld =  7324.4 BIOM =  10463.4
  HRU     426 SUB  21 FRST  Yld =  6744.4 BIOM =   9634.9
  HRU     427 SUB  21 FRST  Yld =  5499.7 BIOM =   7856.7
  HRU     428 SUB  21 FRST  Yld =  5028.6 BIOM =   7183.7
  HRU     429 SUB  21 FRST  Yld =  5035.3 BIOM =   7193.3
  HRU     430 SUB  21 FRST  Yld =  5075.2 BIOM =   7250.2
  HRU     431 SUB  21 FRST  Yld =  4275.6 BIOM =   6108.0
  HRU     432 SUB  21 FRST  Yld =  4498.5 BIOM =   6426.5
  HRU     433 SUB  21 FRST  Yld =  4038.9 BIOM =   5769.8
  HRU     434 SUB  21 FRST  Yld =  4892.4 BIOM =   6989.2
  HRU     435 SUB  21 FRST  Yld =  5195.0 BIOM =   7421.4
  HRU     436 SUB  21 FRST  Yld =  5047.1 BIOM =   7210.2
  HRU     437 SUB  21 FRST  Yld =  2667.2 BIOM =   3810.3
  HRU     438 SUB  21 FRST  Yld =  2773.7 BIOM =   3962.4
  HRU     439 SUB  21 FRST  Yld =  2958.6 BIOM =   4226.6
  HRU     440 SUB  21 FRST  Yld =  7661.8 BIOM =  10945.4
  HRU     441 SUB  21 FRST  Yld =  7138.9 BIOM =  10198.4
  HRU     442 SUB  21 FRST  Yld =  7393.0 BIOM =  10561.4
  HRU     443 SUB  21 FRST  Yld =  4184.9 BIOM =   5978.4
  HRU     444 SUB  21 FRST  Yld =  3654.5 BIOM =   5220.7
  HRU     445 SUB  21 FRST  Yld =  3974.6 BIOM =   5678.0
  HRU     446 SUB  21 PAST  Yld =   201.1 BIOM =   1171.7
  HRU     447 SUB  21 PAST  Yld =   201.7 BIOM =   1120.9
  HRU     448 SUB  21 PAST  Yld =   174.3 BIOM =   1133.0
  HRU     449 SUB  21 PAST  Yld =   187.2 BIOM =   1013.1
  HRU     450 SUB  21 PAST  Yld =   173.6 BIOM =   1068.2
  HRU     451 SUB  22 RICE  Yld =  2969.1 BIOM =   7676.8
  HRU     452 SUB  22 RICE  Yld =  2941.3 BIOM =   7604.6
  HRU     453 SUB  22 RICE  Yld =  2958.9 BIOM =   7650.6
  HRU     454 SUB  22 FRST  Yld =  4239.4 BIOM =   7052.2
  HRU     455 SUB  22 FRST  Yld =  4235.7 BIOM =   7032.7
  HRU     456 SUB  22 FRST  Yld =  4282.9 BIOM =   7096.6
  HRU     457 SUB  22 FRST  Yld =  3843.3 BIOM =   6240.0
  HRU     458 SUB  22 FRST  Yld =  3415.6 BIOM =   5612.1
  HRU     459 SUB  22 FRST  Yld =  3627.0 BIOM =   5919.6
  HRU     460 SUB  22 FRST  Yld =  4160.6 BIOM =   6741.3
  HRU     461 SUB  22 FRST  Yld =  4194.3 BIOM =   6789.9
  HRU     462 SUB  22 FRST  Yld =  2318.8 BIOM =   3840.8
  HRU     463 SUB  22 FRST  Yld =  2244.4 BIOM =   3736.3
  HRU     464 SUB  22 FRST  Yld =  2551.3 BIOM =   4180.2
  HRU     465 SUB  23 RICE  Yld =  3022.8 BIOM =   7813.0
  HRU     466 SUB  23 RICE  Yld =  3013.6 BIOM =   7789.3
  HRU     467 SUB  23 RICE  Yld =  3020.2 BIOM =   7806.0
  HRU     468 SUB  23 RICE  Yld =  3025.8 BIOM =   7819.8
  HRU     469 SUB  23 RICE  Yld =  3035.8 BIOM =   7845.9
  HRU     470 SUB  23 RICE  Yld =  3026.6 BIOM =   7822.0
  HRU     471 SUB  23 AGRC  Yld =  3695.3 BIOM =  11979.5
  HRU     472 SUB  23 AGRC  Yld =  3693.6 BIOM =  11974.0
  HRU     473 SUB  23 AGRC  Yld =  3694.9 BIOM =  11978.2
  HRU     474 SUB  23 AGRC  Yld =  3673.0 BIOM =  11907.6
  HRU     475 SUB  23 AGRC  Yld =  3678.2 BIOM =  11924.4
  HRU     476 SUB  23 FRST  Yld =  1633.0 BIOM =   5665.3
  HRU     477 SUB  23 FRST  Yld =  1554.5 BIOM =   5393.1
  HRU     478 SUB  23 FRST  Yld =  1505.0 BIOM =   5221.6
  HRU     479 SUB  23 FRST  Yld =  2168.8 BIOM =   7524.3
  HRU     480 SUB  23 FRST  Yld =  1988.4 BIOM =   6898.4
  HRU     481 SUB  23 FRST  Yld =  2315.8 BIOM =   8034.4
  HRU     482 SUB  23 FRST  Yld =  2147.4 BIOM =   7450.2
  HRU     483 SUB  23 FRST  Yld =  1940.4 BIOM =   6732.0
  HRU     484 SUB  23 FRST  Yld =  2059.1 BIOM =   7143.8
  HRU     485 SUB  23 FRST  Yld =  2417.8 BIOM =   8388.1
  HRU     486 SUB  23 FRST  Yld =  2350.8 BIOM =   8156.0
  HRU     487 SUB  23 FRST  Yld =  2500.1 BIOM =   8673.8
  HRU     488 SUB  23 FRST  Yld =  1931.7 BIOM =   6701.9
  HRU     489 SUB  23 FRST  Yld =  1803.1 BIOM =   6255.7
  HRU     490 SUB  23 FRST  Yld =  2053.8 BIOM =   7125.4
  HRU     491 SUB  23 PAST  Yld =     8.1 BIOM =    976.2
  HRU     492 SUB  23 PAST  Yld =     8.5 BIOM =   1022.9
  HRU     493 SUB  23 PAST  Yld =     7.8 BIOM =   1002.3
  HRU     494 SUB  23 PAST  Yld =    14.2 BIOM =   1642.1
  HRU     495 SUB  23 PAST  Yld =    10.6 BIOM =   1448.5
  HRU     496 SUB  23 PAST  Yld =    12.0 BIOM =   1528.8
  HRU     497 SUB  23 PAST  Yld =     9.4 BIOM =   1427.2
  HRU     498 SUB  23 PAST  Yld =    10.7 BIOM =   1513.3
  HRU     499 SUB  23 PAST  Yld =    10.0 BIOM =   1442.1
  HRU     500 SUB  23 PAST  Yld =    12.6 BIOM =   2099.9
  HRU     501 SUB  23 PAST  Yld =    11.8 BIOM =   2019.3
  HRU     502 SUB  23 PAST  Yld =    12.0 BIOM =   2111.0
  HRU     503 SUB  23 PAST  Yld =     9.9 BIOM =   1425.9
  HRU     504 SUB  23 PAST  Yld =    11.1 BIOM =   1563.0
  HRU     505 SUB  23 WATR  Yld =     0.0 BIOM =      0.0
  HRU     506 SUB  23 WATR  Yld =     0.0 BIOM =      0.0
  HRU     507 SUB  23 WATR  Yld =     0.0 BIOM =      0.0
  HRU     508 SUB  24 RICE  Yld =  3005.2 BIOM =   7772.1
  HRU     509 SUB  24 RICE  Yld =  3000.6 BIOM =   7759.8
  HRU     510 SUB  24 RICE  Yld =  2997.5 BIOM =   7752.0
  HRU     511 SUB  24 RICE  Yld =  2963.4 BIOM =   7663.2
  HRU     512 SUB  24 RICE  Yld =  2979.8 BIOM =   7705.3
  HRU     513 SUB  24 RICE  Yld =  2983.0 BIOM =   7713.7
  HRU     514 SUB  24 AGRC  Yld =  3644.5 BIOM =  11784.5
  HRU     515 SUB  24 AGRC  Yld =  3635.4 BIOM =  11755.0
  HRU     516 SUB  24 AGRC  Yld =  3638.5 BIOM =  11764.8
  HRU     517 SUB  24 AGRC  Yld =  3679.5 BIOM =  11897.9
  HRU     518 SUB  24 AGRC  Yld =  3679.3 BIOM =  11897.3
  HRU     519 SUB  24 FRST  Yld =  3535.7 BIOM =   5051.0
  HRU     520 SUB  24 FRST  Yld =  3518.0 BIOM =   5025.8
  HRU     521 SUB  24 FRST  Yld =  3788.6 BIOM =   5412.3
  HRU     522 SUB  24 FRST  Yld =  5571.8 BIOM =   7959.7
  HRU     523 SUB  24 FRST  Yld =  5360.1 BIOM =   7657.3
  HRU     524 SUB  24 FRST  Yld =  5325.2 BIOM =   7607.4
  HRU     525 SUB  24 PAST  Yld =   172.4 BIOM =    944.5
  HRU     526 SUB  24 PAST  Yld =   177.9 BIOM =    883.5
  HRU     527 SUB  24 PAST  Yld =   167.1 BIOM =    861.2
  HRU     528 SUB  24 PAST  Yld =   331.2 BIOM =   1904.3
  HRU     529 SUB  24 PAST  Yld =   314.9 BIOM =   1879.1
  HRU     530 SUB  25 RICE  Yld =  2983.6 BIOM =   7714.4
  HRU     531 SUB  25 RICE  Yld =  2980.4 BIOM =   7706.2
  HRU     532 SUB  25 RICE  Yld =  2968.3 BIOM =   7674.9
  HRU     533 SUB  25 AGRC  Yld =  3637.3 BIOM =  11761.0
  HRU     534 SUB  25 AGRC  Yld =  3647.1 BIOM =  11793.0
  HRU     535 SUB  25 AGRC  Yld =  3642.8 BIOM =  11778.8
  HRU     536 SUB  25 AGRC  Yld =  3629.4 BIOM =  11735.8
  HRU     537 SUB  25 AGRC  Yld =  3645.7 BIOM =  11788.7
  HRU     538 SUB  25 FRST  Yld =  3498.6 BIOM =   4998.0
  HRU     539 SUB  25 FRST  Yld =  3357.6 BIOM =   4796.5
  HRU     540 SUB  25 FRST  Yld =  3401.0 BIOM =   4858.6
  HRU     541 SUB  25 FRST  Yld =  5500.3 BIOM =   7857.6
  HRU     542 SUB  25 FRST  Yld =  7403.3 BIOM =  10576.2
  HRU     543 SUB  25 FRST  Yld =  6718.9 BIOM =   9598.4
  HRU     544 SUB  25 FRST  Yld =  4520.7 BIOM =   6458.1
  HRU     545 SUB  25 FRST  Yld =  4045.5 BIOM =   5779.2
  HRU     546 SUB  25 FRST  Yld =  4315.6 BIOM =   6165.1
  HRU     547 SUB  25 FRST  Yld =  4894.9 BIOM =   6992.7
  HRU     548 SUB  25 FRST  Yld =  5215.1 BIOM =   7450.1
  HRU     549 SUB  25 FRST  Yld =  5033.5 BIOM =   7190.7
  HRU     550 SUB  25 FRST  Yld =  7627.1 BIOM =  10895.9
  HRU     551 SUB  25 FRST  Yld =  7141.7 BIOM =  10202.4
  HRU     552 SUB  25 FRST  Yld =  7228.9 BIOM =  10327.0
  HRU     553 SUB  25 FRST  Yld =  4200.7 BIOM =   6001.0
  HRU     554 SUB  25 FRST  Yld =  3654.6 BIOM =   5220.8
  HRU     555 SUB  25 FRST  Yld =  3967.9 BIOM =   5668.4
  HRU     556 SUB  25 PAST  Yld =   316.6 BIOM =   1599.3
  HRU     557 SUB  25 PAST  Yld =   371.9 BIOM =   2138.1
  HRU     558 SUB  25 PAST  Yld =   393.0 BIOM =   2434.1
  HRU     559 SUB  25 PAST  Yld =   200.7 BIOM =   1164.4
  HRU     560 SUB  25 PAST  Yld =   214.2 BIOM =   1075.6
  HRU     561 SUB  25 PAST  Yld =   201.6 BIOM =   1111.4
  HRU     562 SUB  26 RICE  Yld =  2983.3 BIOM =   7714.5
  HRU     563 SUB  26 RICE  Yld =  2992.3 BIOM =   7738.2
  HRU     564 SUB  26 RICE  Yld =  2998.2 BIOM =   7753.1
  HRU     565 SUB  26 FRST  Yld =  3480.3 BIOM =   4971.9
  HRU     566 SUB  26 FRST  Yld =  3393.9 BIOM =   4848.4
  HRU     567 SUB  26 FRST  Yld =  3361.1 BIOM =   4801.6
  HRU     568 SUB  26 FRST  Yld =  5078.1 BIOM =   7254.4
  HRU     569 SUB  26 FRST  Yld =  5112.3 BIOM =   7303.4
  HRU     570 SUB  26 FRST  Yld =  5058.9 BIOM =   7227.0
  HRU     571 SUB  26 FRST  Yld =  5182.3 BIOM =   7403.2
  HRU     572 SUB  26 FRST  Yld =  4883.2 BIOM =   6976.0
  HRU     573 SUB  26 FRST  Yld =  4933.9 BIOM =   7048.4
  HRU     574 SUB  26 FRST  Yld =  2670.1 BIOM =   3814.4
  HRU     575 SUB  26 FRST  Yld =  2744.8 BIOM =   3921.2
  HRU     576 SUB  26 FRST  Yld =  3016.0 BIOM =   4308.6
  HRU     577 SUB  27 RICE  Yld =  2814.6 BIOM =   7265.8
  HRU     578 SUB  27 RICE  Yld =  2818.5 BIOM =   7276.0
  HRU     579 SUB  27 RICE  Yld =  2812.2 BIOM =   7258.9
  HRU     580 SUB  27 RICE  Yld =  2815.4 BIOM =   7267.3
  HRU     581 SUB  27 FRST  Yld =  3543.0 BIOM =   5061.4
  HRU     582 SUB  27 FRST  Yld =  3552.1 BIOM =   5074.5
  HRU     583 SUB  27 FRST  Yld =  3813.8 BIOM =   5448.3
  HRU     584 SUB  27 FRST  Yld =  5313.6 BIOM =   7590.9
  HRU     585 SUB  27 FRST  Yld =  5329.0 BIOM =   7612.9
  HRU     586 SUB  27 PAST  Yld =   522.5 BIOM =    749.5
  HRU     587 SUB  27 PAST  Yld =   530.0 BIOM =    760.1
  HRU     588 SUB  27 PAST  Yld =   889.2 BIOM =   1275.6
  HRU     589 SUB  27 PAST  Yld =   877.1 BIOM =   1258.3
  HRU     590 SUB  27 WATR  Yld =     0.0 BIOM =      0.0
  HRU     591 SUB  27 WATR  Yld =     0.0 BIOM =      0.0
  HRU     592 SUB  28 RICE  Yld =  2821.0 BIOM =   7282.6
  HRU     593 SUB  28 RICE  Yld =  2820.1 BIOM =   7280.1
  HRU     594 SUB  28 RICE  Yld =  2815.8 BIOM =   7268.9
  HRU     595 SUB  28 RICE  Yld =  2816.2 BIOM =   7269.4
  HRU     596 SUB  28 RICE  Yld =  2813.6 BIOM =   7262.8
  HRU     597 SUB  28 AGRC  Yld =  3599.7 BIOM =  11641.6
  HRU     598 SUB  28 AGRC  Yld =  3613.8 BIOM =  11687.3
  HRU     599 SUB  28 AGRC  Yld =  3606.0 BIOM =  11662.2
  HRU     600 SUB  28 FRST  Yld =  3650.7 BIOM =   5215.3
  HRU     601 SUB  28 FRST  Yld =  3853.9 BIOM =   5505.6
  HRU     602 SUB  28 FRST  Yld =  3544.9 BIOM =   5064.2
  HRU     603 SUB  28 FRST  Yld =  5365.8 BIOM =   7665.5
  HRU     604 SUB  28 FRST  Yld =  4608.6 BIOM =   6583.7
  HRU     605 SUB  28 FRST  Yld =  5090.4 BIOM =   7271.9
  HRU     606 SUB  28 FRST  Yld =  5548.8 BIOM =   7926.9
  HRU     607 SUB  28 FRST  Yld =  5314.1 BIOM =   7591.5
  HRU     608 SUB  28 FRST  Yld =  5329.0 BIOM =   7612.9
  HRU     609 SUB  28 PAST  Yld =   555.2 BIOM =    796.3
  HRU     610 SUB  28 PAST  Yld =   588.7 BIOM =    844.4
  HRU     611 SUB  28 PAST  Yld =   523.4 BIOM =    750.7
  HRU     612 SUB  28 PAST  Yld =   754.7 BIOM =   1082.5
  HRU     613 SUB  28 PAST  Yld =   807.2 BIOM =   1157.8
  HRU     614 SUB  28 PAST  Yld =   680.9 BIOM =    976.6
  HRU     615 SUB  28 PAST  Yld =   764.8 BIOM =   1097.1
  HRU     616 SUB  28 PAST  Yld =   729.2 BIOM =   1046.0
  HRU     617 SUB  29 RICE  Yld =  2817.8 BIOM =   7273.6
  HRU     618 SUB  29 RICE  Yld =  2814.4 BIOM =   7264.6
  HRU     619 SUB  29 RICE  Yld =  2816.9 BIOM =   7271.1
  HRU     620 SUB  29 RICE  Yld =  2813.2 BIOM =   7260.9
  HRU     621 SUB  29 RICE  Yld =  2822.6 BIOM =   7285.5
  HRU     622 SUB  29 RICE  Yld =  2812.1 BIOM =   7258.1
  HRU     623 SUB  29 FRST  Yld =  3405.3 BIOM =   4864.6
  HRU     624 SUB  29 FRST  Yld =  3609.3 BIOM =   5156.1
  HRU     625 SUB  29 FRST  Yld =  3401.1 BIOM =   4858.6
  HRU     626 SUB  29 FRST  Yld =  5080.6 BIOM =   7257.9
  HRU     627 SUB  29 FRST  Yld =  5053.8 BIOM =   7219.8
  HRU     628 SUB  29 FRST  Yld =  5338.8 BIOM =   7626.8
  HRU     629 SUB  29 WATR  Yld =     0.0 BIOM =      0.0
  HRU     630 SUB  29 WATR  Yld =     0.0 BIOM =      0.0
  HRU     631 SUB  29 WATR  Yld =     0.0 BIOM =      0.0
  HRU     632 SUB  29 WATR  Yld =     0.0 BIOM =      0.0
  HRU     633 SUB  29 WATR  Yld =     0.0 BIOM =      0.0
  HRU     634 SUB  29 WATR  Yld =     0.0 BIOM =      0.0
  HRU     635 SUB  29 BERM  Yld = 14795.9 BIOM =  21213.8
  HRU     636 SUB  29 BERM  Yld = 15457.9 BIOM =  22171.5
  HRU     637 SUB  29 BERM  Yld = 15441.5 BIOM =  22147.5
  HRU     638 SUB  30 RICE  Yld =  2997.2 BIOM =   7750.4
  HRU     639 SUB  30 RICE  Yld =  2982.1 BIOM =   7711.0
  HRU     640 SUB  30 RICE  Yld =  2987.0 BIOM =   7723.7
  HRU     641 SUB  30 RICE  Yld =  2988.6 BIOM =   7728.1
  HRU     642 SUB  30 RICE  Yld =  3011.5 BIOM =   7787.0
  HRU     643 SUB  30 RICE  Yld =  2987.4 BIOM =   7725.1
  HRU     644 SUB  30 RICE  Yld =  2981.2 BIOM =   7708.2
  HRU     645 SUB  30 RICE  Yld =  2979.3 BIOM =   7703.2
  HRU     646 SUB  30 RICE  Yld =  2974.5 BIOM =   7691.0
  HRU     647 SUB  30 RICE  Yld =  2994.9 BIOM =   7745.0
  HRU     648 SUB  30 RICE  Yld =  2997.5 BIOM =   7751.7
  HRU     649 SUB  30 AGRC  Yld =  3680.8 BIOM =  11902.2
  HRU     650 SUB  30 AGRC  Yld =  3673.2 BIOM =  11877.5
  HRU     651 SUB  30 FRST  Yld =  3353.1 BIOM =   4790.1
  HRU     652 SUB  30 FRST  Yld =  3382.5 BIOM =   4832.1
  HRU     653 SUB  30 FRST  Yld =  3495.7 BIOM =   4993.8
  HRU     654 SUB  30 FRST  Yld =  6709.2 BIOM =   9584.5
  HRU     655 SUB  30 FRST  Yld =  7359.7 BIOM =  10513.9
  HRU     656 SUB  30 FRST  Yld =  5489.8 BIOM =   7842.6
  HRU     657 SUB  30 FRST  Yld =  4550.1 BIOM =   6500.1
  HRU     658 SUB  30 FRST  Yld =  4259.0 BIOM =   6084.3
  HRU     659 SUB  30 FRST  Yld =  4035.7 BIOM =   5765.3
  HRU     660 SUB  30 FRST  Yld =  5180.7 BIOM =   7400.9
  HRU     661 SUB  30 FRST  Yld =  4880.2 BIOM =   6971.7
  HRU     662 SUB  30 FRST  Yld =  4925.0 BIOM =   7035.7
  HRU     663 SUB  30 FRST  Yld =  2754.7 BIOM =   3935.4
  HRU     664 SUB  30 FRST  Yld =  2671.0 BIOM =   3815.7
  HRU     665 SUB  30 FRST  Yld =  2936.7 BIOM =   4195.2
  HRU     666 SUB  30 FRST  Yld =  3086.8 BIOM =   4409.7
  HRU     667 SUB  30 FRST  Yld =  3544.6 BIOM =   5063.7
  HRU     668 SUB  30 FRST  Yld =  2856.5 BIOM =   4080.8
  HRU     669 SUB  30 BERM  Yld = 18107.0 BIOM =  26002.9
  HRU     670 SUB  30 BERM  Yld = 18114.7 BIOM =  26014.0
  HRU     671 SUB  30 BERM  Yld = 18040.1 BIOM =  25906.6
  HRU     672 SUB  30 BERM  Yld = 18071.4 BIOM =  25951.7
  HRU     673 SUB  31 RICE  Yld =  2981.8 BIOM =   7709.7
  HRU     674 SUB  31 RICE  Yld =  2977.1 BIOM =   7697.6
  HRU     675 SUB  31 RICE  Yld =  2979.0 BIOM =   7702.7
  HRU     676 SUB  31 RICE  Yld =  2983.9 BIOM =   7716.2
  HRU     677 SUB  31 RICE  Yld =  2999.0 BIOM =   7755.3
  HRU     678 SUB  31 RICE  Yld =  2995.2 BIOM =   7745.8
  HRU     679 SUB  31 FRST  Yld =  3356.8 BIOM =   4795.4
  HRU     680 SUB  31 FRST  Yld =  3501.0 BIOM =   5001.4
  HRU     681 SUB  31 FRST  Yld =  3398.8 BIOM =   4855.4
  HRU     682 SUB  31 FRST  Yld =  6813.0 BIOM =   9732.9
  HRU     683 SUB  31 FRST  Yld =  7319.4 BIOM =  10456.3
  HRU     684 SUB  31 FRST  Yld =  5491.0 BIOM =   7844.2
  HRU     685 SUB  31 FRST  Yld =  5101.9 BIOM =   7288.5
  HRU     686 SUB  31 FRST  Yld =  5046.7 BIOM =   7209.6
  HRU     687 SUB  31 FRST  Yld =  5036.4 BIOM =   7194.9
  HRU     688 SUB  31 FRST  Yld =  5017.4 BIOM =   7167.8
  HRU     689 SUB  31 FRST  Yld =  4883.3 BIOM =   6976.2
  HRU     690 SUB  31 FRST  Yld =  5184.2 BIOM =   7406.0
  HRU     691 SUB  31 FRST  Yld =  2990.6 BIOM =   4272.3
  HRU     692 SUB  31 FRST  Yld =  2664.0 BIOM =   3805.7
  HRU     693 SUB  31 FRST  Yld =  2759.7 BIOM =   3942.4
  HRU     694 SUB  31 FRST  Yld =  3366.6 BIOM =   4809.4
  HRU     695 SUB  31 FRST  Yld =  3124.8 BIOM =   4464.0
  HRU     696 SUB  31 FRST  Yld =  2851.4 BIOM =   4073.4
  HRU     697 SUB  32 RICE  Yld =  2805.8 BIOM =   7242.3
  HRU     698 SUB  32 RICE  Yld =  2802.5 BIOM =   7233.9
  HRU     699 SUB  32 RICE  Yld =  2822.0 BIOM =   7284.0
  HRU     700 SUB  32 RICE  Yld =  2822.3 BIOM =   7284.8
  HRU     701 SUB  32 RICE  Yld =  2816.4 BIOM =   7269.1
  HRU     702 SUB  32 RICE  Yld =  2815.4 BIOM =   7266.5
  HRU     703 SUB  32 AGRC  Yld =  3630.7 BIOM =  11742.1
  HRU     704 SUB  32 AGRC  Yld =  3634.8 BIOM =  11755.3
  HRU     705 SUB  32 AGRC  Yld =  3624.1 BIOM =  11720.6
  HRU     706 SUB  32 AGRC  Yld =  3629.6 BIOM =  11738.4
  HRU     707 SUB  32 AGRC  Yld =  3632.8 BIOM =  11748.8
  HRU     708 SUB  32 FRST  Yld =  4246.5 BIOM =   6066.4
  HRU     709 SUB  32 FRST  Yld =  4222.7 BIOM =   6032.4
  HRU     710 SUB  32 FRST  Yld =  3390.1 BIOM =   4843.0
  HRU     711 SUB  32 FRST  Yld =  3583.6 BIOM =   5119.4
  HRU     712 SUB  32 FRST  Yld =  3452.2 BIOM =   4931.7
  HRU     713 SUB  32 FRST  Yld =  4695.4 BIOM =   6707.8
  HRU     714 SUB  32 FRST  Yld =  4958.6 BIOM =   7083.6
  HRU     715 SUB  32 FRST  Yld =  4348.4 BIOM =   6212.0
  HRU     716 SUB  32 FRST  Yld =  5012.9 BIOM =   7161.3
  HRU     717 SUB  32 FRST  Yld =  5133.6 BIOM =   7333.7
  HRU     718 SUB  32 FRST  Yld =  5284.6 BIOM =   7549.4
  HRU     719 SUB  32 PAST  Yld =   509.6 BIOM =    731.0
  HRU     720 SUB  32 PAST  Yld =   535.3 BIOM =    767.8
  HRU     721 SUB  32 PAST  Yld =   489.3 BIOM =    701.8
  HRU     722 SUB  32 PAST  Yld =   873.3 BIOM =   1252.8
  HRU     723 SUB  32 PAST  Yld =   839.6 BIOM =   1204.5
  HRU     724 SUB  32 PAST  Yld =   799.9 BIOM =   1147.5
  HRU     725 SUB  32 BERM  Yld = 17455.6 BIOM =  25065.3
  HRU     726 SUB  32 BERM  Yld = 17457.7 BIOM =  25068.2
  HRU     727 SUB  32 BERM  Yld = 17343.8 BIOM =  24904.8
  HRU     728 SUB  32 BERM  Yld = 17347.1 BIOM =  24909.5
  HRU     729 SUB  33 RICE  Yld =  2807.6 BIOM =   7247.0
  HRU     730 SUB  33 RICE  Yld =  2803.4 BIOM =   7236.1
  HRU     731 SUB  33 RICE  Yld =  2819.3 BIOM =   7277.0
  HRU     732 SUB  33 RICE  Yld =  2819.9 BIOM =   7278.7
  HRU     733 SUB  33 RICE  Yld =  2814.4 BIOM =   7263.9
  HRU     734 SUB  33 RICE  Yld =  2818.4 BIOM =   7274.4
  HRU     735 SUB  33 RICE  Yld =  2814.6 BIOM =   7264.5
  HRU     736 SUB  33 AGRC  Yld =  3606.6 BIOM =  11664.0
  HRU     737 SUB  33 AGRC  Yld =  3615.5 BIOM =  11693.0
  HRU     738 SUB  33 AGRC  Yld =  3624.0 BIOM =  11720.2
  HRU     739 SUB  33 AGRC  Yld =  3616.4 BIOM =  11695.7
  HRU     740 SUB  33 FRST  Yld =  3390.9 BIOM =   4844.2
  HRU     741 SUB  33 FRST  Yld =  3456.4 BIOM =   4937.8
  HRU     742 SUB  33 FRST  Yld =  3582.4 BIOM =   5117.7
  HRU     743 SUB  33 FRST  Yld =  4350.2 BIOM =   6214.6
  HRU     744 SUB  33 FRST  Yld =  4734.2 BIOM =   6763.1
  HRU     745 SUB  33 FRST  Yld =  5000.8 BIOM =   7143.9
  HRU     746 SUB  33 FRST  Yld =  4456.6 BIOM =   6366.6
  HRU     747 SUB  33 FRST  Yld =  4169.5 BIOM =   5956.5
  HRU     748 SUB  33 FRST  Yld =  4662.3 BIOM =   6660.4
  HRU     749 SUB  33 FRST  Yld =  5071.5 BIOM =   7245.0
  HRU     750 SUB  33 FRST  Yld =  5025.5 BIOM =   7179.2
  HRU     751 SUB  33 FRST  Yld =  5278.1 BIOM =   7540.1
  HRU     752 SUB  33 FRST  Yld =  2897.7 BIOM =   4139.6
  HRU     753 SUB  33 FRST  Yld =  2746.9 BIOM =   3924.1
  HRU     754 SUB  33 FRST  Yld =  3059.7 BIOM =   4371.0
  HRU     755 SUB  33 FRST  Yld =  3837.1 BIOM =   5481.6
  HRU     756 SUB  33 FRST  Yld =  4159.8 BIOM =   5942.6
  HRU     757 SUB  33 FRST  Yld =  4378.8 BIOM =   6255.5
  HRU     758 SUB  33 PAST  Yld =   538.4 BIOM =    772.2
  HRU     759 SUB  33 PAST  Yld =   511.7 BIOM =    733.9
  HRU     760 SUB  33 PAST  Yld =   489.6 BIOM =    702.2
  HRU     761 SUB  33 PAST  Yld =   750.6 BIOM =   1076.6
  HRU     762 SUB  33 PAST  Yld =   634.7 BIOM =    910.4
  HRU     763 SUB  33 PAST  Yld =   692.9 BIOM =    993.9
  HRU     764 SUB  33 PAST  Yld =   704.4 BIOM =   1010.5
  HRU     765 SUB  33 PAST  Yld =   615.9 BIOM =    883.4
  HRU     766 SUB  33 PAST  Yld =   660.3 BIOM =    947.1
  HRU     767 SUB  34 RICE  Yld =  2807.4 BIOM =   7246.6
  HRU     768 SUB  34 RICE  Yld =  2803.2 BIOM =   7235.7
  HRU     769 SUB  34 RICE  Yld =  2818.0 BIOM =   7273.7
  HRU     770 SUB  34 RICE  Yld =  2817.5 BIOM =   7272.7
  HRU     771 SUB  34 RICE  Yld =  2818.9 BIOM =   7276.1
  HRU     772 SUB  34 RICE  Yld =  2813.9 BIOM =   7262.6
  HRU     773 SUB  34 RICE  Yld =  2812.0 BIOM =   7257.8
  HRU     774 SUB  34 AGRC  Yld =  3634.3 BIOM =  11753.5
  HRU     775 SUB  34 AGRC  Yld =  3635.5 BIOM =  11757.5
  HRU     776 SUB  34 AGRC  Yld =  3624.6 BIOM =  11722.4
  HRU     777 SUB  34 AGRC  Yld =  3624.1 BIOM =  11720.5
  HRU     778 SUB  34 AGRC  Yld =  3630.8 BIOM =  11742.4
  HRU     779 SUB  34 AGRC  Yld =  3633.0 BIOM =  11749.4
  HRU     780 SUB  34 FRST  Yld =  3589.9 BIOM =   5128.5
  HRU     781 SUB  34 FRST  Yld =  3451.1 BIOM =   4930.2
  HRU     782 SUB  34 FRST  Yld =  3388.5 BIOM =   4840.8
  HRU     783 SUB  34 FRST  Yld =  4725.7 BIOM =   6751.0
  HRU     784 SUB  34 FRST  Yld =  4351.0 BIOM =   6215.7
  HRU     785 SUB  34 FRST  Yld =  5123.8 BIOM =   7319.7
  HRU     786 SUB  34 FRST  Yld =  4164.9 BIOM =   5949.8
  HRU     787 SUB  34 FRST  Yld =  4447.1 BIOM =   6353.0
  HRU     788 SUB  34 FRST  Yld =  4733.3 BIOM =   6761.9
  HRU     789 SUB  34 FRST  Yld =  5323.0 BIOM =   7604.3
  HRU     790 SUB  34 FRST  Yld =  5019.5 BIOM =   7170.7
  HRU     791 SUB  34 FRST  Yld =  5047.5 BIOM =   7210.7
  HRU     792 SUB  34 FRST  Yld =  3837.0 BIOM =   5481.4
  HRU     793 SUB  34 FRST  Yld =  4440.0 BIOM =   6342.9
  HRU     794 SUB  34 FRST  Yld =  4153.7 BIOM =   5933.8
  HRU     795 SUB  34 PAST  Yld =   488.8 BIOM =    701.1
  HRU     796 SUB  34 PAST  Yld =   510.0 BIOM =    731.5
  HRU     797 SUB  34 PAST  Yld =   538.9 BIOM =    773.0
  HRU     798 SUB  34 PAST  Yld =   633.8 BIOM =    909.0
  HRU     799 SUB  34 PAST  Yld =   761.3 BIOM =   1092.0
  HRU     800 SUB  34 PAST  Yld =   693.3 BIOM =    994.4
  HRU     801 SUB  34 PAST  Yld =   664.0 BIOM =    952.5
  HRU     802 SUB  34 PAST  Yld =   615.4 BIOM =    882.7
  HRU     803 SUB  34 PAST  Yld =   722.9 BIOM =   1037.0
  HRU     804 SUB  34 PAST  Yld =   816.2 BIOM =   1170.8
  HRU     805 SUB  34 PAST  Yld =   693.1 BIOM =    994.3
  HRU     806 SUB  34 PAST  Yld =   630.3 BIOM =    904.2
  HRU     807 SUB  34 PAST  Yld =   570.3 BIOM =    818.0
  HRU     808 SUB  35 RICE  Yld =  2814.5 BIOM =   7264.9
  HRU     809 SUB  35 RICE  Yld =  2814.0 BIOM =   7263.5
  HRU     810 SUB  35 RICE  Yld =  2812.9 BIOM =   7260.3
  HRU     811 SUB  35 RICE  Yld =  2815.3 BIOM =   7266.5
  HRU     812 SUB  35 RICE  Yld =  2820.0 BIOM =   7278.7
  HRU     813 SUB  35 AGRC  Yld =  3638.4 BIOM =  11766.9
  HRU     814 SUB  35 FRST  Yld =  3389.9 BIOM =   4842.8
  HRU     815 SUB  35 FRST  Yld =  3400.9 BIOM =   4858.4
  HRU     816 SUB  35 FRST  Yld =  3575.7 BIOM =   5108.2
  HRU     817 SUB  35 FRST  Yld =  5054.0 BIOM =   7220.0
  HRU     818 SUB  35 FRST  Yld =  5061.6 BIOM =   7230.8
  HRU     819 SUB  35 WATR  Yld =     0.0 BIOM =      0.0
  HRU     820 SUB  35 WATR  Yld =     0.0 BIOM =      0.0
  HRU     821 SUB  35 WATR  Yld =     0.0 BIOM =      0.0
  HRU     822 SUB  35 WATR  Yld =     0.0 BIOM =      0.0
  HRU     823 SUB  35 WATR  Yld =     0.0 BIOM =      0.0
  HRU     824 SUB  35 BERM  Yld = 15461.1 BIOM =  22176.1
  HRU     825 SUB  35 BERM  Yld = 14488.2 BIOM =  20750.1
  HRU     826 SUB  35 BERM  Yld = 15230.3 BIOM =  21839.9
  HRU     827 SUB  36 RICE  Yld =  2998.6 BIOM =   7754.6
  HRU     828 SUB  36 RICE  Yld =  2995.9 BIOM =   7747.5
  HRU     829 SUB  36 RICE  Yld =  2994.3 BIOM =   7743.3
  HRU     830 SUB  36 RICE  Yld =  2986.3 BIOM =   7722.6
  HRU     831 SUB  36 RICE  Yld =  2993.2 BIOM =   7740.0
  HRU     832 SUB  36 RICE  Yld =  2998.2 BIOM =   7753.2
  HRU     833 SUB  36 RICE  Yld =  2987.7 BIOM =   7725.5
  HRU     834 SUB  36 AGRC  Yld =  3665.1 BIOM =  11851.5
  HRU     835 SUB  36 AGRC  Yld =  3655.1 BIOM =  11819.1
  HRU     836 SUB  36 AGRC  Yld =  3666.0 BIOM =  11854.5
  HRU     837 SUB  36 AGRC  Yld =  3666.2 BIOM =  11855.0
  HRU     838 SUB  36 AGRC  Yld =  3663.7 BIOM =  11847.0
  HRU     839 SUB  36 FRST  Yld =  3398.3 BIOM =   4854.7
  HRU     840 SUB  36 FRST  Yld =  3609.6 BIOM =   5156.5
  HRU     841 SUB  36 FRST  Yld =  3459.7 BIOM =   4942.4
  HRU     842 SUB  36 FRST  Yld =  4776.3 BIOM =   6823.4
  HRU     843 SUB  36 FRST  Yld =  4227.0 BIOM =   6038.6
  HRU     844 SUB  36 FRST  Yld =  4478.6 BIOM =   6397.9
  HRU     845 SUB  36 FRST  Yld =  5368.9 BIOM =   7669.9
  HRU     846 SUB  36 FRST  Yld =  5092.0 BIOM =   7274.3
  HRU     847 SUB  36 FRST  Yld =  5211.4 BIOM =   7444.9
  HRU     848 SUB  36 PAST  Yld =   173.1 BIOM =    817.1
  HRU     849 SUB  36 PAST  Yld =   163.3 BIOM =    808.6
  HRU     850 SUB  36 PAST  Yld =   163.5 BIOM =    843.1
  HRU     851 SUB  36 WATR  Yld =     0.0 BIOM =      0.0
  HRU     852 SUB  36 WATR  Yld =     0.0 BIOM =      0.0
  HRU     853 SUB  36 WATR  Yld =     0.0 BIOM =      0.0
  HRU     854 SUB  36 WATR  Yld =     0.0 BIOM =      0.0
  HRU     855 SUB  36 WATR  Yld =     0.0 BIOM =      0.0
  HRU     856 SUB  36 WATR  Yld =     0.0 BIOM =      0.0
  HRU     857 SUB  37 RICE  Yld =  2989.1 BIOM =   7729.6
  HRU     858 SUB  37 RICE  Yld =  2982.2 BIOM =   7711.2
  HRU     859 SUB  37 RICE  Yld =  2991.1 BIOM =   7734.4
  HRU     860 SUB  37 RICE  Yld =  3005.8 BIOM =   7772.3
  HRU     861 SUB  37 RICE  Yld =  2994.8 BIOM =   7744.3
  HRU     862 SUB  37 RICE  Yld =  3003.2 BIOM =   7766.0
  HRU     863 SUB  37 RICE  Yld =  2986.0 BIOM =   7721.3
  HRU     864 SUB  37 RICE  Yld =  2980.2 BIOM =   7706.4
  HRU     865 SUB  37 RICE  Yld =  2971.5 BIOM =   7683.1
  HRU     866 SUB  37 RICE  Yld =  2977.1 BIOM =   7697.9
  HRU     867 SUB  37 RICE  Yld =  2991.4 BIOM =   7736.0
  HRU     868 SUB  37 RICE  Yld =  3001.1 BIOM =   7760.9
  HRU     869 SUB  37 RICE  Yld =  2983.6 BIOM =   7715.3
  HRU     870 SUB  37 FRST  Yld =  3480.8 BIOM =   4972.6
  HRU     871 SUB  37 FRST  Yld =  3386.0 BIOM =   4837.1
  HRU     872 SUB  37 FRST  Yld =  3359.7 BIOM =   4799.6
  HRU     873 SUB  37 FRST  Yld =  5096.0 BIOM =   7280.0
  HRU     874 SUB  37 FRST  Yld =  5035.4 BIOM =   7193.5
  HRU     875 SUB  37 FRST  Yld =  5041.6 BIOM =   7202.3
  HRU     876 SUB  37 FRST  Yld =  5044.1 BIOM =   7205.8
  HRU     877 SUB  37 FRST  Yld =  4885.0 BIOM =   6978.5
  HRU     878 SUB  37 FRST  Yld =  5188.9 BIOM =   7412.7
  HRU     879 SUB  37 FRST  Yld =  2779.5 BIOM =   3970.7
  HRU     880 SUB  37 FRST  Yld =  2665.3 BIOM =   3807.6
  HRU     881 SUB  37 FRST  Yld =  2989.2 BIOM =   4270.3
  HRU     882 SUB  37 BERM  Yld = 18105.5 BIOM =  26000.8
  HRU     883 SUB  37 BERM  Yld = 18108.9 BIOM =  26005.6
  HRU     884 SUB  37 BERM  Yld = 18099.2 BIOM =  25991.9
  HRU     885 SUB  37 BERM  Yld = 18107.0 BIOM =  26003.0
  HRU     886 SUB  37 BERM  Yld = 18113.5 BIOM =  26012.3
  HRU     887 SUB  37 BERM  Yld = 18104.4 BIOM =  25999.1
  HRU     888 SUB  37 BERM  Yld = 18076.7 BIOM =  25959.3
  HRU     889 SUB  37 BERM  Yld = 18041.0 BIOM =  25908.0
  HRU     890 SUB  38 RICE  Yld =  2998.8 BIOM =   7754.6
  HRU     891 SUB  38 RICE  Yld =  2986.6 BIOM =   7722.7
  HRU     892 SUB  38 RICE  Yld =  2990.8 BIOM =   7733.8
  HRU     893 SUB  38 RICE  Yld =  2988.1 BIOM =   7726.8
  HRU     894 SUB  38 RICE  Yld =  2992.7 BIOM =   7738.7
  HRU     895 SUB  38 RICE  Yld =  2983.3 BIOM =   7714.0
  HRU     896 SUB  38 RICE  Yld =  3006.0 BIOM =   7772.9
  HRU     897 SUB  38 RICE  Yld =  2997.3 BIOM =   7750.7
  HRU     898 SUB  38 RICE  Yld =  2988.8 BIOM =   7728.8
  HRU     899 SUB  38 RICE  Yld =  2975.9 BIOM =   7694.6
  HRU     900 SUB  38 RICE  Yld =  2979.1 BIOM =   7702.7
  HRU     901 SUB  38 RICE  Yld =  2981.4 BIOM =   7708.8
  HRU     902 SUB  38 AGRC  Yld =  3647.6 BIOM =  11794.4
  HRU     903 SUB  38 AGRC  Yld =  3642.1 BIOM =  11776.6
  HRU     904 SUB  38 AGRC  Yld =  3642.3 BIOM =  11777.4
  HRU     905 SUB  38 AGRC  Yld =  3671.6 BIOM =  11872.2
  HRU     906 SUB  38 AGRC  Yld =  3668.6 BIOM =  11862.6
  HRU     907 SUB  38 AGRC  Yld =  3669.2 BIOM =  11864.6
  HRU     908 SUB  38 AGRC  Yld =  3667.8 BIOM =  11859.9
  HRU     909 SUB  38 AGRC  Yld =  3672.4 BIOM =  11875.0
  HRU     910 SUB  38 AGRC  Yld =  3681.6 BIOM =  11904.8
  HRU     911 SUB  38 FRST  Yld =  3470.0 BIOM =   4957.1
  HRU     912 SUB  38 FRST  Yld =  3514.0 BIOM =   5020.0
  HRU     913 SUB  38 FRST  Yld =  3618.6 BIOM =   5169.5
  HRU     914 SUB  38 FRST  Yld =  3358.5 BIOM =   4797.8
  HRU     915 SUB  38 FRST  Yld =  3486.1 BIOM =   4980.1
  HRU     916 SUB  38 FRST  Yld =  3393.5 BIOM =   4847.8
  HRU     917 SUB  38 FRST  Yld =  5032.3 BIOM =   7189.0
  HRU     918 SUB  38 FRST  Yld =  5026.8 BIOM =   7181.1
  HRU     919 SUB  38 FRST  Yld =  5082.5 BIOM =   7260.6
  HRU     920 SUB  38 FRST  Yld =  4266.7 BIOM =   6095.3
  HRU     921 SUB  38 FRST  Yld =  4536.0 BIOM =   6479.9
  HRU     922 SUB  38 FRST  Yld =  4034.7 BIOM =   5763.9
  HRU     923 SUB  38 FRST  Yld =  5019.9 BIOM =   7171.3
  HRU     924 SUB  38 FRST  Yld =  5194.5 BIOM =   7420.8
  HRU     925 SUB  38 FRST  Yld =  4881.8 BIOM =   6974.1
  HRU     926 SUB  39 RICE  Yld =  2811.0 BIOM =   7256.9
  HRU     927 SUB  39 RICE  Yld =  2818.7 BIOM =   7275.9
  HRU     928 SUB  39 RICE  Yld =  2818.9 BIOM =   7276.5
  HRU     929 SUB  39 AGRC  Yld =  3645.0 BIOM =  11788.3
  HRU     930 SUB  39 AGRC  Yld =  3643.2 BIOM =  11782.2
  HRU     931 SUB  39 AGRC  Yld =  3630.9 BIOM =  11742.5
  HRU     932 SUB  39 AGRC  Yld =  3627.9 BIOM =  11733.0
  HRU     933 SUB  39 FRST  Yld =  4408.6 BIOM =   6298.0
  HRU     934 SUB  39 FRST  Yld =  5178.0 BIOM =   7397.2
  HRU     935 SUB  39 FRST  Yld =  5171.9 BIOM =   7388.4
  HRU     936 SUB  39 BERM  Yld = 17441.1 BIOM =  25044.2
  HRU     937 SUB  39 BERM  Yld = 17439.7 BIOM =  25042.1
  HRU     938 SUB  39 BERM  Yld = 17431.1 BIOM =  25030.0
  HRU     939 SUB  39 BERM  Yld = 17429.5 BIOM =  25027.6
  HRU     940 SUB  40 RICE  Yld =  2810.7 BIOM =   7256.1
  HRU     941 SUB  40 RICE  Yld =  2810.9 BIOM =   7256.6
  HRU     942 SUB  40 RICE  Yld =  2819.8 BIOM =   7279.3
  HRU     943 SUB  40 RICE  Yld =  2816.4 BIOM =   7270.7
  HRU     944 SUB  40 RICE  Yld =  2819.9 BIOM =   7279.2
  HRU     945 SUB  40 RICE  Yld =  2818.9 BIOM =   7276.4
  HRU     946 SUB  40 AGRC  Yld =  3642.0 BIOM =  11778.5
  HRU     947 SUB  40 AGRC  Yld =  3644.4 BIOM =  11786.2
  HRU     948 SUB  40 AGRC  Yld =  3636.1 BIOM =  11759.3
  HRU     949 SUB  40 AGRC  Yld =  3637.0 BIOM =  11762.3
  HRU     950 SUB  40 AGRC  Yld =  3627.8 BIOM =  11732.6
  HRU     951 SUB  40 AGRC  Yld =  3630.9 BIOM =  11742.5
  HRU     952 SUB  40 FRST  Yld =  4400.3 BIOM =   6286.1
  HRU     953 SUB  40 FRST  Yld =  4389.3 BIOM =   6270.4
  HRU     954 SUB  40 FRST  Yld =  5161.1 BIOM =   7373.0
  HRU     955 SUB  40 FRST  Yld =  5174.3 BIOM =   7391.8
  HRU     956 SUB  40 BERM  Yld = 17402.3 BIOM =  25017.5
  HRU     957 SUB  41 RICE  Yld =  2811.4 BIOM =   7257.9
  HRU     958 SUB  41 RICE  Yld =  2810.8 BIOM =   7256.4
  HRU     959 SUB  41 RICE  Yld =  2814.5 BIOM =   7265.8
  HRU     960 SUB  41 RICE  Yld =  2810.7 BIOM =   7256.3
  HRU     961 SUB  41 RICE  Yld =  2817.6 BIOM =   7273.7
  HRU     962 SUB  41 RICE  Yld =  2820.2 BIOM =   7280.2
  HRU     963 SUB  41 RICE  Yld =  2821.2 BIOM =   7282.5
  HRU     964 SUB  41 RICE  Yld =  2819.2 BIOM =   7277.1
  HRU     965 SUB  41 AGRC  Yld =  3644.7 BIOM =  11787.3
  HRU     966 SUB  41 AGRC  Yld =  3643.3 BIOM =  11782.8
  HRU     967 SUB  41 AGRC  Yld =  3631.3 BIOM =  11743.9
  HRU     968 SUB  41 AGRC  Yld =  3628.6 BIOM =  11735.1
  HRU     969 SUB  41 FRST  Yld =  3592.3 BIOM =   5131.8
  HRU     970 SUB  41 FRST  Yld =  3782.9 BIOM =   5404.1
  HRU     971 SUB  41 FRST  Yld =  3495.9 BIOM =   4994.1
  HRU     972 SUB  41 FRST  Yld =  5179.3 BIOM =   7399.0
  HRU     973 SUB  41 FRST  Yld =  5459.1 BIOM =   7798.7
  HRU     974 SUB  41 FRST  Yld =  5298.3 BIOM =   7569.1
  HRU     975 SUB  41 BERM  Yld = 17396.1 BIOM =  25008.4
  HRU     976 SUB  41 BERM  Yld = 17387.8 BIOM =  24996.5
  HRU     977 SUB  41 BERM  Yld = 17382.7 BIOM =  24989.1
  HRU     978 SUB  41 BERM  Yld = 17403.0 BIOM =  25018.5
  HRU     979 SUB  42 RICE  Yld =  2820.5 BIOM =   7280.6
  HRU     980 SUB  42 RICE  Yld =  2816.9 BIOM =   7271.1
  HRU     981 SUB  42 RICE  Yld =  2814.1 BIOM =   7263.8
  HRU     982 SUB  42 RICE  Yld =  2823.0 BIOM =   7286.7
  HRU     983 SUB  42 RICE  Yld =  2813.4 BIOM =   7261.4
  HRU     984 SUB  42 RICE  Yld =  2814.3 BIOM =   7264.0
  HRU     985 SUB  42 AGRC  Yld =  3623.6 BIOM =  11718.8
  HRU     986 SUB  42 AGRC  Yld =  3625.0 BIOM =  11723.3
  HRU     987 SUB  42 AGRC  Yld =  3627.0 BIOM =  11729.8
  HRU     988 SUB  42 AGRC  Yld =  3645.4 BIOM =  11789.4
  HRU     989 SUB  42 AGRC  Yld =  3639.2 BIOM =  11769.4
  HRU     990 SUB  42 FRST  Yld =  3396.1 BIOM =   4851.6
  HRU     991 SUB  42 FRST  Yld =  3596.8 BIOM =   5138.3
  HRU     992 SUB  42 FRST  Yld =  3464.4 BIOM =   4949.2
  HRU     993 SUB  42 FRST  Yld =  5326.6 BIOM =   7609.4
  HRU     994 SUB  42 FRST  Yld =  5102.5 BIOM =   7289.2
  HRU     995 SUB  42 FRST  Yld =  5054.4 BIOM =   7220.5
  HRU     996 SUB  42 WATR  Yld =     0.0 BIOM =      0.0
  HRU     997 SUB  42 WATR  Yld =     0.0 BIOM =      0.0
  HRU     998 SUB  42 WATR  Yld =     0.0 BIOM =      0.0
  HRU     999 SUB  42 WATR  Yld =     0.0 BIOM =      0.0
  HRU    1000 SUB  42 WATR  Yld =     0.0 BIOM =      0.0
  HRU    1001 SUB  42 BERM  Yld = 17385.2 BIOM =  24992.9
  HRU    1002 SUB  42 BERM  Yld = 17372.7 BIOM =  24975.0
  HRU    1003 SUB  42 BERM  Yld = 17376.7 BIOM =  24980.7
  HRU    1004 SUB  42 BERM  Yld = 17369.4 BIOM =  24970.3
  HRU    1005 SUB  42 BERM  Yld = 17388.9 BIOM =  24998.4
  HRU    1006 SUB  42 BERM  Yld = 17393.6 BIOM =  25005.1
  HRU    1007 SUB  42 BERM  Yld = 17391.4 BIOM =  25002.0
  HRU    1008 SUB  42 BERM  Yld = 17320.5 BIOM =  24900.1
  HRU    1009 SUB  42 BERM  Yld = 17323.1 BIOM =  24903.8
  HRU    1010 SUB  42 BERM  Yld = 17385.2 BIOM =  24993.2
  HRU    1011 SUB  42 BERM  Yld = 17386.1 BIOM =  24994.5
  HRU    1012 SUB  42 BERM  Yld = 17397.1 BIOM =  25010.3
  HRU    1013 SUB  42 BERM  Yld = 14146.2 BIOM =  20284.0
  HRU    1014 SUB  42 BERM  Yld = 13579.3 BIOM =  19454.5
  HRU    1015 SUB  42 BERM  Yld = 14722.0 BIOM =  21130.9
  HRU    1016 SUB  43 RICE  Yld =  2803.2 BIOM =   7235.7
  HRU    1017 SUB  43 RICE  Yld =  2801.9 BIOM =   7232.3
  HRU    1018 SUB  43 RICE  Yld =  2818.2 BIOM =   7274.0
  HRU    1019 SUB  43 RICE  Yld =  2812.2 BIOM =   7258.2
  HRU    1020 SUB  43 RICE  Yld =  2813.2 BIOM =   7260.9
  HRU    1021 SUB  43 AGRC  Yld =  3632.4 BIOM =  11747.3
  HRU    1022 SUB  43 AGRC  Yld =  3635.3 BIOM =  11756.9
  HRU    1023 SUB  43 AGRC  Yld =  3615.4 BIOM =  11692.7
  HRU    1024 SUB  43 AGRC  Yld =  3623.9 BIOM =  11720.0
  HRU    1025 SUB  43 AGRC  Yld =  3605.8 BIOM =  11661.7
  HRU    1026 SUB  43 AGRC  Yld =  3633.3 BIOM =  11750.5
  HRU    1027 SUB  43 AGRC  Yld =  3631.2 BIOM =  11743.6
  HRU    1028 SUB  43 FRST  Yld =  4387.5 BIOM =   6267.9
  HRU    1029 SUB  43 FRST  Yld =  4609.3 BIOM =   6584.7
  HRU    1030 SUB  43 FRST  Yld =  4222.8 BIOM =   6032.6
  HRU    1031 SUB  43 FRST  Yld =  3452.5 BIOM =   4932.2
  HRU    1032 SUB  43 FRST  Yld =  3578.6 BIOM =   5112.2
  HRU    1033 SUB  43 FRST  Yld =  3392.2 BIOM =   4846.0
  HRU    1034 SUB  43 FRST  Yld =  4718.3 BIOM =   6740.4
  HRU    1035 SUB  43 FRST  Yld =  5028.7 BIOM =   7183.9
  HRU    1036 SUB  43 FRST  Yld =  4351.5 BIOM =   6216.5
  HRU    1037 SUB  43 FRST  Yld =  4168.2 BIOM =   5954.5
  HRU    1038 SUB  43 FRST  Yld =  4676.6 BIOM =   6680.8
  HRU    1039 SUB  43 FRST  Yld =  4479.8 BIOM =   6399.7
  HRU    1040 SUB  43 FRST  Yld =  5018.0 BIOM =   7168.6
  HRU    1041 SUB  43 FRST  Yld =  5060.4 BIOM =   7229.1
  HRU    1042 SUB  43 FRST  Yld =  5287.7 BIOM =   7553.8
  HRU    1043 SUB  43 FRST  Yld =  2734.5 BIOM =   3906.4
  HRU    1044 SUB  43 FRST  Yld =  3112.7 BIOM =   4446.7
  HRU    1045 SUB  43 FRST  Yld =  2890.8 BIOM =   4129.8
  HRU    1046 SUB  43 FRST  Yld =  4396.1 BIOM =   6280.1
  HRU    1047 SUB  43 FRST  Yld =  4147.3 BIOM =   5924.7
  HRU    1048 SUB  43 FRST  Yld =  3834.2 BIOM =   5477.5
[...]
   2880 131   ATc-1160   .349E+00   84.00  201.00    1.03    0.00    0.00    0.00    0.20    0.00    0.00    0.00   30.99    0.00    0.00    0.00    0.58    0.22    0.00
   2881 131   ACh-1180   .465E+00   79.00  133.00   10.41    0.00    0.00    0.00    0.20    0.00    0.00    0.00   20.51    0.00    0.00    0.00    0.90    0.63    0.00
   2882 131   ACh-1180   .179E+02   79.00  133.00    3.55    0.00    0.00    0.00    0.20    0.00    0.00    0.00   20.51    0.00    0.00    0.00    0.90    0.63    0.00
   2883 131   ACh-1180   .463E+01   79.00  133.00    1.00    0.00    0.00    0.00    0.20    0.00    0.00    0.00   20.51    0.00    0.00    0.00    0.90    0.63    0.00
   2884 131   ATc-1160   .240E+00   79.00  201.00   10.65    0.00    0.00    0.00    0.20    0.00    0.00    0.00   30.99    0.00    0.00    0.00    1.32    0.92    0.00
   2885 131   ATc-1160   .732E+01   79.00  201.00    3.65    0.00    0.00    0.00    0.20    0.00    0.00    0.00   30.99    0.00    0.00    0.00    1.32    0.92    0.00
   2886 131   ATc-1160   .227E+01   79.00  201.00    0.96    0.00    0.00    0.00    0.20    0.00    0.00    0.00   30.99    0.00    0.00    0.00    1.32    0.92    0.00
   2887 131   ACh-1180   .204E+00   94.96  133.00    1.00    0.00   12.71    0.00    0.20    0.00    0.00    0.00   20.51    0.00    0.00    0.00    0.63    0.45    0.00
   2888 131   ACh-1180   .479E+00   94.96  133.00    3.07    0.00   12.71    0.00    0.20    0.00    0.00    0.00   20.51    0.00    0.00    0.00    0.63    0.45    0.00
   2889 131   ATc-1160   .494E-01   94.96  201.00    1.15    0.00   12.63    0.00    0.20    0.00    0.00    0.00   30.99    0.00    0.00    0.00    1.05    0.76    0.00
   2890 131   ATc-1160   .149E+00   94.96  201.00    2.54    0.00   12.63    0.00    0.20    0.00    0.00    0.00   30.99    0.00    0.00    0.00    1.05    0.76    0.00
   2891 132   ACh-1180   .768E-01   84.00  133.00    4.73    0.00    0.00    0.00    0.20    0.00    0.00    0.00   20.51    0.00    0.00    0.00    0.22    0.05    0.00
   2892 132   ACh-1180   .795E-02   84.00  133.00    1.00    0.00    0.00    0.00    0.20    0.00    0.00    0.00   20.51    0.00    0.00    0.00    0.22    0.05    0.00
   2893 132   ACh-1180   .106E-01   84.00  133.00   11.18    0.00    0.00    0.00    0.20    0.00    0.00    0.00   20.51    0.00    0.00    0.00    0.22    0.05    0.00
   2894 132   ATc-1160   .318E-01   84.00  201.00    1.05    0.00    0.00    0.00    0.20    0.00    0.00    0.00   30.99    0.00    0.00    0.00    0.57    0.21    0.00
   2895 132   ATc-1160   .198E+00   84.00  201.00   10.83    0.00    0.00    0.00    0.20    0.00    0.00    0.00   30.99    0.00    0.00    0.00    0.57    0.21    0.00
   2896 132   ATc-1160   .667E+00   84.00  201.00    4.59    0.00    0.00    0.00    0.20    0.00    0.00    0.00   30.99    0.00    0.00    0.00    0.57    0.21    0.00
   2897 132   ACh-1180   .116E+02   79.00  133.00   11.37    0.00    0.00    0.00    0.20    0.00    0.00    0.00   20.51    0.00    0.00    0.00    0.89    0.62    0.00
   2898 132   ACh-1180   .383E+02   79.00  133.00    4.55    0.00    0.00    0.00    0.20    0.00    0.00    0.00   20.51    0.00    0.00    0.00    0.89    0.62    0.00
   2899 132   ACh-1180   .168E+01   79.00  133.00    1.10    0.00    0.00    0.00    0.20    0.00    0.00    0.00   20.51    0.00    0.00    0.00    0.89    0.62    0.00
   2900 132   ACu-1181   .265E-01   73.00  119.00    9.71    0.00    0.00    0.00    0.20    0.00    0.00    0.00   18.35    0.00    0.00    0.00    0.78    0.54    0.00
   2901 132   ACu-1181   .884E-03   73.00  119.00    1.13    0.00    0.00    0.00    0.20    0.00    0.00    0.00   18.35    0.00    0.00    0.00    0.78    0.54    0.00
   2902 132   ACu-1181   .257E+00   73.00  119.00    4.80    0.00    0.00    0.00    0.20    0.00    0.00    0.00   18.35    0.00    0.00    0.00    0.78    0.54    0.00
   2903 132   ATc-1160   .455E+00   79.00  201.00    1.13    0.00    0.00    0.00    0.20    0.00    0.00    0.00   30.99    0.00    0.00    0.00    1.31    0.92    0.00
   2904 132   ATc-1160   .185E+01   79.00  201.00   11.45    0.00    0.00    0.00    0.20    0.00    0.00    0.00   30.99    0.00    0.00    0.00    1.31    0.92    0.00
   2905 132   ATc-1160   .713E+01   79.00  201.00    4.19    0.00    0.00    0.00    0.20    0.00    0.00    0.00   30.99    0.00    0.00    0.00    1.31    0.92    0.00
   2906 132   CMo-1183   .279E+01   73.00  116.00   12.22    0.00    0.00    0.00    0.20    0.00    0.00    0.00   17.89    0.00    0.00    0.00    0.77    0.54    0.00
   2907 132   CMo-1183   .118E+00   73.00  116.00    1.20    0.00    0.00    0.00    0.20    0.00    0.00    0.00   17.89    0.00    0.00    0.00    0.77    0.54    0.00
   2908 132   CMo-1183   .437E+01   73.00  116.00    4.89    0.00    0.00    0.00    0.20    0.00    0.00    0.00   17.89    0.00    0.00    0.00    0.77    0.54    0.00
   2909 132   UR-11925   .265E-02   36.00   10.00    3.45    0.00    0.00    0.00    0.20    0.00    0.00    0.00    1.54    0.00    0.00    0.00    0.02    0.02    0.00
   2910 132   ACh-1180   .265E-02   84.00  133.00    0.89    0.00    0.00    0.00    0.20    0.00    0.00    0.00   20.51    0.00    0.00    0.00    0.27    0.19    0.00
   2911 132   ACh-1180   .582E-01   84.00  133.00    4.43    0.00    0.00    0.00    0.20    0.00    0.00    0.00   20.51    0.00    0.00    0.00    0.27    0.19    0.00
   2912 132   ACh-1180   .600E-01   84.00  133.00   12.09    0.00    0.00    0.00    0.20    0.00    0.00    0.00   20.51    0.00    0.00    0.00    0.27    0.19    0.00
   2913 132   CMo-1183   .266E+00   79.00  116.00   12.06    0.00    0.00    0.00    0.20    0.00    0.00    0.00   17.89    0.00    0.00    0.00    0.27    0.19    0.00
   2914 132   CMo-1183   .705E+00   79.00  116.00    4.66    0.00    0.00    0.00    0.20    0.00    0.00    0.00   17.89    0.00    0.00    0.00    0.27    0.19    0.00
   2915 132   CMo-1183   .291E-01   79.00  116.00    0.96    0.00    0.00    0.00    0.20    0.00    0.00    0.00   17.89    0.00    0.00    0.00    0.27    0.19    0.00
   2916 132   ACh-1180   .135E+00   92.00  133.00   11.05    0.00    0.00    0.00    0.20    0.00    0.00    0.00 1417.67    0.00    0.00    0.00    0.00    0.00    0.00
   2917 132   ACh-1180   .397E-01   92.00  133.00    1.03    0.00    0.00    0.00    0.20    0.00    0.00    0.00 1417.67    0.00    0.00    0.00    0.00    0.00    0.00
   2918 132   ACh-1180   .606E+00   92.00  133.00    4.30    0.00    0.00    0.00    0.20    0.00    0.00    0.00 1417.67    0.00    0.00    0.00    0.00    0.00    0.00
   2919 132   ATc-1160   .104E+00   92.00  201.00   11.66    0.00    0.00    0.00    0.20    0.00    0.00    0.00 1417.67    0.00    0.00    0.00    0.00    0.00    0.00
   2920 132   ATc-1160   .485E-01   92.00  201.00    1.10    0.00    0.00    0.00    0.20    0.00    0.00    0.00 1417.67    0.00    0.00    0.00    0.00    0.00    0.00
   2921 132   ATc-1160   .365E+00   92.00  201.00    3.35    0.00    0.00    0.00    0.20    0.00    0.00    0.00 1417.67    0.00    0.00    0.00    0.00    0.00    0.00
   2922 132   CMo-1183   .593E+00   92.00  116.00    2.99    0.00    0.00    0.00    0.20    0.00    0.00    0.00 1417.67    0.00    0.00    0.00    0.00    0.00    0.00
   2923 132   CMo-1183   .291E-01   92.00  116.00   10.35    0.00    0.00    0.00    0.20    0.00    0.00    0.00 1417.67    0.00    0.00    0.00    0.00    0.00    0.00
   2924 132   CMo-1183   .865E-01   92.00  116.00    1.15    0.00    0.00    0.00    0.20    0.00    0.00    0.00 1417.67    0.00    0.00    0.00    0.00    0.00    0.00
   2925 132   ATc-1160   .884E-03   81.09  201.00    8.78    0.00   12.63    0.00    0.20    0.00    0.00    0.00   30.99    0.00    0.00    0.00    1.04    0.75    0.00
   2926 132   ATc-1160   .609E-01   81.09  201.00    3.27    0.00   12.63    0.00    0.20    0.00    0.00    0.00   30.99    0.00    0.00    0.00    1.04    0.75    0.00
   2927 132   ATc-1160   .441E-02   81.09  201.00    0.93    0.00   12.63    0.00    0.20    0.00    0.00    0.00   30.99    0.00    0.00    0.00    1.04    0.75    0.00
   2928 132   CMo-1183   .771E+00   74.86  116.00    3.44    0.00   12.58    0.00    0.20    0.00    0.00    0.00   17.89    0.00    0.00    0.00    0.54    0.39    0.00
   2929 132   CMo-1183   .838E-01   74.86  116.00   10.49    0.00   12.58    0.00    0.20    0.00    0.00    0.00   17.89    0.00    0.00    0.00    0.54    0.39    0.00
   2930 132   CMo-1183   .732E-01   74.86  116.00    1.03    0.00   12.58    0.00    0.20    0.00    0.00    0.00   17.89    0.00    0.00    0.00    0.54    0.39    0.00
   2931 133   ACh-1180   .176E-02   84.00  133.00    0.82    0.00    0.00    0.00    0.20    0.00    0.00    0.00   20.51    0.00    0.00    0.00    0.22    0.05    0.00
   2932 133   ACh-1180   .856E-01   84.00  133.00    4.89    0.00    0.00    0.00    0.20    0.00    0.00    0.00   20.51    0.00    0.00    0.00    0.22    0.05    0.00
   2933 133   ACh-1180   .247E-01   84.00  133.00   11.24    0.00    0.00    0.00    0.20    0.00    0.00    0.00   20.51    0.00    0.00    0.00    0.22    0.05    0.00
   2934 133   ATc-1160   .884E-03   84.00  201.00   11.42    0.00    0.00    0.00    0.20    0.00    0.00    0.00   30.99    0.00    0.00    0.00    0.57    0.21    0.00
   2935 133   ATc-1160   .265E-02   84.00  201.00    7.26    0.00    0.00    0.00    0.20    0.00    0.00    0.00   30.99    0.00    0.00    0.00    0.57    0.21    0.00
   2936 133   ACh-1180   .212E+02   79.00  133.00    4.64    0.00    0.00    0.00    0.20    0.00    0.00    0.00   20.51    0.00    0.00    0.00    0.89    0.62    0.00
   2937 133   ACh-1180   .154E+01   79.00  133.00    0.70    0.00    0.00    0.00    0.20    0.00    0.00    0.00   20.51    0.00    0.00    0.00    0.89    0.62    0.00
   2938 133   ACh-1180   .679E+01   79.00  133.00   11.58    0.00    0.00    0.00    0.20    0.00    0.00    0.00   20.51    0.00    0.00    0.00    0.89    0.62    0.00
   2939 133   ATc-1160   .458E+01   79.00  201.00    4.39    0.00    0.00    0.00    0.20    0.00    0.00    0.00   30.99    0.00    0.00    0.00    1.31    0.92    0.00
   2940 133   ATc-1160   .101E+01   79.00  201.00   10.97    0.00    0.00    0.00    0.20    0.00    0.00    0.00   30.99    0.00    0.00    0.00    1.31    0.92    0.00
   2941 133   ATc-1160   .310E+00   79.00  201.00    1.03    0.00    0.00    0.00    0.20    0.00    0.00    0.00   30.99    0.00    0.00    0.00    1.31    0.92    0.00
   2942 133   UR-11925   .291E-01   36.00   10.00   10.14    0.00    0.00    0.00    0.20    0.00    0.00    0.00    1.54    0.00    0.00    0.00    0.02    0.02    0.00
   2943 133   UR-11925   .816E+00   36.00   10.00    0.16    0.00    0.00    0.00    0.20    0.00    0.00    0.00    1.54    0.00    0.00    0.00    0.02    0.02    0.00
   2944 133   UR-11925   .734E+00   36.00   10.00    3.35    0.00    0.00    0.00    0.20    0.00    0.00    0.00    1.54    0.00    0.00    0.00    0.02    0.02    0.00
   2945 133   ACh-1180   .160E+00   84.00  133.00   11.10    0.00    0.00    0.00    0.20    0.00    0.00    0.00   20.51    0.00    0.00    0.00    0.27    0.19    0.00
   2946 133   ACh-1180   .701E+00   84.00  133.00    4.64    0.00    0.00    0.00    0.20    0.00    0.00    0.00   20.51    0.00    0.00    0.00    0.27    0.19    0.00
   2947 133   ACh-1180   .221E-01   84.00  133.00    1.20    0.00    0.00    0.00    0.20    0.00    0.00    0.00   20.51    0.00    0.00    0.00    0.27    0.19    0.00
   2948 133   ACh-1180   .746E+00   92.00  133.00    3.60    0.00    0.00    0.00    0.20    0.00    0.00    0.00 1417.67    0.00    0.00    0.00    0.00    0.00    0.00
   2949 133   ACh-1180   .485E-01   92.00  133.00    9.74    0.00    0.00    0.00    0.20    0.00    0.00    0.00 1417.67    0.00    0.00    0.00    0.00    0.00    0.00
   2950 133   ACh-1180   .812E-01   92.00  133.00    0.82    0.00    0.00    0.00    0.20    0.00    0.00    0.00 1417.67    0.00    0.00    0.00    0.00    0.00    0.00
   2951 133   ATc-1160   .529E-02   92.00  201.00   10.03    0.00    0.00    0.00    0.20    0.00    0.00    0.00 1417.67    0.00    0.00    0.00    0.00    0.00    0.00
   2952 133   ATc-1160   .168E+00   92.00  201.00    3.39    0.00    0.00    0.00    0.20    0.00    0.00    0.00 1417.67    0.00    0.00    0.00    0.00    0.00    0.00
   2953 133   ATc-1160   .150E-01   92.00  201.00    0.98    0.00    0.00    0.00    0.20    0.00    0.00    0.00 1417.67    0.00    0.00    0.00    0.00    0.00    0.00
   2954 133   UR-11925   .731E+00   92.00   10.00    4.19    0.00    0.00    0.00    0.20    0.00    0.00    0.00 1417.67    0.00    0.00    0.00    0.00    0.00    0.00
   2955 133   UR-11925   .962E-01   92.00   10.00   11.32    0.00    0.00    0.00    0.20    0.00    0.00    0.00 1417.67    0.00    0.00    0.00    0.00    0.00    0.00
   2956 133   UR-11925   .111E+00   92.00   10.00    0.14    0.00    0.00    0.00    0.20    0.00    0.00    0.00 1417.67    0.00    0.00    0.00    0.00    0.00    0.00



                AVE MONTHLY BASIN VALUES
                   SNOW                      WATER               SED
  MON     RAIN     FALL   SURF Q    LAT Q    YIELD       ET    YIELD      PET
          (MM)     (MM)     (MM)     (MM)     (MM)     (MM)   (T/HA)     (MM)
    1    37.45     5.74     3.69     3.13    17.53    18.24     0.45    36.76
    2    73.30     2.16    13.09     4.84    29.54    23.81     1.56    43.52
    3   150.38     0.11    45.36    11.45    81.65    40.80    12.50    75.57
    4   145.60     0.00    46.96    10.55    91.85    52.27    10.65    98.89
    5   225.89     0.00    89.17    14.05   144.05    70.54    11.44   118.25
    6   236.49     0.00   100.17    13.83   158.79    78.27     5.86   123.12
    7   123.85     0.00    43.56     9.90    95.89    86.35     1.03   157.16
    8    96.51     0.00    21.25     5.42    53.35    69.09     0.26   144.26
    9    68.54     0.00     9.68     3.42    23.60    43.50     0.10   105.11
   10    44.79     0.00     5.65     2.79    13.32    27.72     0.09    87.95
   11    86.63     0.00    19.07     5.67    31.12    23.03     0.51    50.96
   12    53.54     1.69    12.07     5.33    31.41    19.45     0.45    39.92

     AVE ANNUAL BASIN STRESS DAYS
               WATER STRESS DAYS =    28.62
               TEMPERATURE STRESS DAYS =     9.25
               NITROGEN STRESS DAYS =    54.71
               PHOSPHORUS STRESS DAYS =     0.80
               AERATION STRESS DAYS =     0.00
1
    SWAT Dec 11 2014    VER 2012/Rev 635                                            

    General Input/Output section (file.cio):                                        
    2020/9/9 0:00:00 ARCGIS-SWAT interface AV                                       
                                                                                    
         AVE ANNUAL BASIN VALUES

              PRECIP =   1343.0 MM
              SNOW FALL =    9.74 MM
              SNOW MELT =     9.72 MM
              SUBLIMATION =     0.03 MM
              SURFACE RUNOFF Q =   409.64 MM
              LATERAL SOIL Q =   90.40 MM
              TILE Q =     0.00 MM
              GROUNDWATER (SHAL AQ) Q =   258.10 MM
              GROUNDWATER (DEEP AQ) Q =    13.87 MM
              REVAP (SHAL AQ => SOIL/PLANTS) =   21.00 MM
              DEEP AQ RECHARGE =    14.61 MM
              TOTAL AQ RECHARGE =  292.15 MM
              TOTAL WATER YLD =   772.01 MM
              PERCOLATION OUT OF SOIL =  296.83 MM
              ET =    553.1 MM
              PET =   1081.4MM
              TRANSMISSION LOSSES =     0.00 MM
              SEPTIC INFLOW =       0.00 MM
              TOTAL SEDIMENT LOADING =    44.890 T/HA
              TILE FROM IMPOUNDED WATER =     0.000 (MM)
              EVAPORATION FROM IMPOUNDED WATER =     0.000 (MM)
              SEEPAGE INTO SOIL FROM IMPOUNDED WATER =    0.000 (MM)
              OVERFLOW FROM IMPOUNDED WATER =    0.000 (MM)
1
    SWAT Dec 11 2014    VER 2012/Rev 635                                            

    General Input/Output section (file.cio):                                        
    2020/9/9 0:00:00 ARCGIS-SWAT interface AV                                       
                                                                                    
              AVE ANNUAL BASIN VALUES


              NUTRIENTS
                   ORGANIC N =    19.141 (KG/HA)
                   ORGANIC P =     2.474 (KG/HA)
                   NO3 YIELD (SQ) =     1.075 (KG/HA)
                   NO3 YIELD (LAT) =    0.357 (KG/HA)
                   NO3 YIELD (TILE) =    0.000 (KG/HA)
                   SOLP YIELD (TILE) =    0.000(KG/HA)
                   SOLP YIELD (SURF INLET RISER) =    0.000 (KG/HA)
                   SOL P YIELD =    0.038 (KG/HA)
                   NO3 LEACHED =    11.391 (KG/HA)
                   P LEACHED =     0.123 (KG/HA)
                   N UPTAKE =    23.650 (KG/HA)
                   P UPTAKE =    4.771 (KG/HA)
                   NO3 YIELD (GWQ) =     0.108 (KG/HA)
                   ACTIVE TO SOLUTION P FLOW =        -0.749 (KG/HA)
                   ACTIVE TO STABLE P FLOW =         4.524 (KG/HA)
                   N FERTILIZER APPLIED =    22.572 (KG/HA)
                   P FERTILIZER APPLIED =     0.000 (KG/HA)
                   N FIXATION =     0.000 (KG/HA)
                   DENITRIFICATION =     0.143 (KG/HA)
                   HUMUS MIN ON ACTIVE ORG N =     5.177 (KG/HA)
                   ACTIVE TO STABLE ORG N =    -1.743 (KG/HA)
                   HUMUS MIN ON ACTIVE ORG P =    0.885 (KG/HA)
                   MIN FROM FRESH ORG N =    5.895 (KG/HA)
                   MIN FROM FRESH ORG P =    1.710 (KG/HA)
                   NO3 IN RAINFALL =     0.000 (KG/HA)
                   INITIAL NO3 IN SOIL =      45.197 (KG/HA)
                   FINAL NO3 IN SOIL =        14.611 (KG/HA)
                   INITIAL ORG N IN SOIL =    6082.053 (KG/HA)
                   FINAL ORG N IN SOIL =      5945.538 (KG/HA)
                   INITIAL MIN P IN SOIL =    2137.439 (KG/HA)
                   FINAL MIN P IN SOIL =      2097.523 (KG/HA)
                   INITIAL ORG P IN SOIL =     745.051 (KG/HA)
                   FINAL ORG P IN SOIL =     728.104 (KG/HA)
                   NO3 IN FERT =    22.572 (KG/HA)
                   AMMONIA IN FERT =     0.000 (KG/HA)
                   ORG N IN FERT =     0.000 (KG/HA)
                   MINERAL P IN FERT =     0.000 (KG/HA)
                   ORG P IN FERT =     0.000 (KG/HA)
                   N REMOVED IN YIELD =    16.755 (KG/HA)
                   P REMOVED IN YIELD =     2.778 (KG/HA)
                   AMMONIA VOLATILIZATION =     0.000 (KG/HA)
                   AMMONIA NITRIFICATION =      0.000 (KG/HA)
                   NO3 EVAP-LAYER 2 TO 1 =    2.732

                   DIE-GRO P Q =       0.0 (No/HA)
                   DIE-GRO LP Q =       0.0 (No/HA)
                   DIE-GRO P SED =      0.0 (No/HA)
                   DIE-GRO LP SED =      0.0 (No/HA)
                   BACT P RUNOFF =      0.0 (No/HA)
                   BACT LP RUNOFF =      0.0 (No/HA)
                   BACT P SEDIMENT =      0.0 (No/HA)
                   BACT LP SEDIMENT =      0.0 (No/HA)
                   BACT P INCORP =      0.0 (No/HA)
                   BACT LP INCORP =      0.0 (No/HA)

                   NITRATE SEPTIC =         0.00 (kg/ha)
                   AMMONIA SEPTIC =         0.00 (kg/ha)
                   ORG N SEPTIC =         0.00 (kg/ha)
                   FRESH ORGN SEPTIC =         0.00 (kg/ha)
                   ORG P SEPTIC =         0.00 (kg/ha)
                   FRESH ORGP SEPTIC =         0.00 (kg/ha)
                   SOL P SEPTIC =         0.00 (kg/ha)
                   BOD SEPTIC =         0.00 (kg/ha)
