1
    SWAT Dec 11 2014    VER 2012/Rev 635                                                                 0/ 0/   0      0: 0: 0

    General Input/Output section (file.cio):                                        
    2020/9/9 0:00:00 ARCGIS-SWAT interface AV                                       
                                                                                    


       SUB      GIS  MON    AREAkm2  PRECIPmm
BIGSUB   1     2000    1 .45854E+02   129.768
BIGSUB   2     2000    1 .86189E+02   128.677
BIGSUB   3     2000    1 .27984E+02   129.768
BIGSUB   4     2000    1 .24648E+02   129.768
BIGSUB   5     2000    1 .27452E+02   120.963
BIGSUB   6     2000    1 .38126E+02   129.768
BIGSUB   7     2000    1 .33075E+00   129.768
BIGSUB   8     2000    1 .26952E+02   129.768
BIGSUB   9     2000    1 .22204E+02   120.963
BIGSUB  10     2000    1 .13462E+02   120.963
BIGSUB  11     2000    1 .22291E+02   129.768
BIGSUB  12     2000    1 .32784E+02   120.963
BIGSUB  13     2000    1 .79636E+01   120.963
BIGSUB  14     2000    1 .22689E+02   120.963
BIGSUB  15     2000    1 .26213E+01   120.963
BIGSUB  16     2000    1 .52920E-01   120.963
BIGSUB  17     2000    1 .33622E+01   120.963
BIGSUB  18     2000    1 .22436E+02   120.963
BIGSUB  19     2000    1 .41798E+02   113.659
BIGSUB  20     2000    1 .45842E+02   113.659
BIGSUB  21     2000    1 .41386E+02   110.607
BIGSUB  22     2000    1 .25137E+02   111.952
BIGSUB  23     2000    1 .79468E+02   120.963
BIGSUB  24     2000    1 .24827E+02   120.963
BIGSUB  25     2000    1 .22920E+02   113.659
BIGSUB  26     2000    1 .44894E+01   113.659
BIGSUB  27     2000    1 .10460E+02   120.963
BIGSUB  28     2000    1 .30092E+02   120.963
BIGSUB  29     2000    1 .10686E+02   113.659
BIGSUB  30     2000    1 .43433E+02   113.659
BIGSUB  31     2000    1 .32131E+02   113.659
BIGSUB  32     2000    1 .32989E+02   120.963
BIGSUB  33     2000    1 .38508E+02   120.963
BIGSUB  34     2000    1 .74614E+02   120.963
BIGSUB  35     2000    1 .10432E+02   113.659
BIGSUB  36     2000    1 .86277E+02   113.659
BIGSUB  37     2000    1 .13750E+02   113.659
BIGSUB  38     2000    1 .66594E+02   113.659
BIGSUB  39     2000    1 .49092E+01   120.963
BIGSUB  40     2000    1 .17745E+02   120.963
BIGSUB  41     2000    1 .19859E+02   120.963
BIGSUB  42     2000    1 .83111E+02   113.659
BIGSUB  43     2000    1 .68870E+02   120.963
BIGSUB  44     2000    1 .43924E+02   120.963
BIGSUB  45     2000    1 .31932E+02   120.963
BIGSUB  46     2000    1 .11068E+02   120.963
BIGSUB  47     2000    1 .75818E+02   113.659
BIGSUB  48     2000    1 .33194E+02   129.768
BIGSUB  49     2000    1 .57024E+02   120.963
BIGSUB  50     2000    1 .12993E+02   120.963
BIGSUB  51     2000    1 .69997E+02   129.768
BIGSUB  52     2000    1 .25723E+02   129.768
BIGSUB  53     2000    1 .28527E+02   129.768
BIGSUB  54     2000    1 .46893E+02   143.875
BIGSUB  55     2000    1 .30643E+02   143.875
BIGSUB  56     2000    1 .94436E+01   120.963
BIGSUB  57     2000    1 .15118E+01   120.963
BIGSUB  58     2000    1 .12948E+01   113.659
BIGSUB  59     2000    1 .33671E+02   129.768
BIGSUB  60     2000    1 .38787E+02   113.659
BIGSUB  61     2000    1 .54657E+02   129.768
BIGSUB  62     2000    1 .76482E+02   113.659
BIGSUB  63     2000    1 .94665E+01   113.659
BIGSUB  64     2000    1 .17570E+02   143.875
BIGSUB  65     2000    1 .39035E+02   143.875
BIGSUB  66     2000    1 .89894E+01   143.875
BIGSUB  67     2000    1 .90405E+00   143.875
BIGSUB  68     2000    1 .17293E+02   143.875
BIGSUB  69     2000    1 .20709E+02   143.875
BIGSUB  70     2000    1 .44265E+02   120.963
BIGSUB  71     2000    1 .12188E+02   113.659
BIGSUB  72     2000    1 .31804E+02   113.659
BIGSUB  73     2000    1 .63116E+01   113.659
BIGSUB  74     2000    1 .12692E+01   143.875
BIGSUB  75     2000    1 .30132E+02   120.963
BIGSUB  76     2000    1 .13600E+01   113.659
BIGSUB  77     2000    1 .25220E+02   113.659
BIGSUB  78     2000    1 .51909E+02   113.659
BIGSUB  79     2000    1 .33231E+02   143.875
BIGSUB  80     2000    1 .28811E+02   120.963
BIGSUB  81     2000    1 .63654E+01   113.659
BIGSUB  82     2000    1 .59182E+00   113.659
BIGSUB  83     2000    1 .47258E+02   134.070
BIGSUB  84     2000    1 .79373E+02   143.875
BIGSUB  85     2000    1 .58331E+02   134.070
BIGSUB  86     2000    1 .29852E+02   113.659
BIGSUB  87     2000    1 .25581E+02   113.659
BIGSUB  88     2000    1 .20477E+02   113.659
BIGSUB  89     2000    1 .22789E+02   143.875
BIGSUB  90     2000    1 .53191E+02   134.070
BIGSUB  91     2000    1 .24741E+02   128.167
BIGSUB  92     2000    1 .56077E+02   134.070
BIGSUB  93     2000    1 .66944E+00   134.070
BIGSUB  94     2000    1 .30369E+02   134.070
BIGSUB  95     2000    1 .95265E+01   134.070
BIGSUB  96     2000    1 .44356E+01   128.167
BIGSUB  97     2000    1 .17044E+02   128.167
BIGSUB  98     2000    1 .38880E+02   113.659
BIGSUB  99     2000    1 .10526E+03   143.875
BIGSUB 100     2000    1 .22712E+02   134.070
BIGSUB 101     2000    1 .12029E+02   134.070
BIGSUB 102     2000    1 .20023E+02   138.672
BIGSUB 103     2000    1 .41736E+02   138.672
BIGSUB 104     2000    1 .29717E+02   138.672
BIGSUB 105     2000    1 .20328E+02   128.167
BIGSUB 106     2000    1 .25620E+02   138.672
BIGSUB 107     2000    1 .29696E+02   128.167
BIGSUB 108     2000    1 .12128E+01   128.167
BIGSUB 109     2000    1 .38774E+02   128.167
BIGSUB 110     2000    1 .74938E+02   128.167
BIGSUB 111     2000    1 .29993E+02   128.167
BIGSUB 112     2000    1 .64651E+00   128.167
BIGSUB 113     2000    1 .66414E+02   134.070
BIGSUB 114     2000    1 .38803E+02   128.167
BIGSUB 115     2000    1 .32887E+02   128.167
BIGSUB 116     2000    1 .29806E+02   128.167
BIGSUB 117     2000    1 .81135E+01   128.167
BIGSUB 118     2000    1 .10668E+02   128.167
BIGSUB 119     2000    1 .82472E+02   138.672
BIGSUB 120     2000    1 .83543E+01   128.167
BIGSUB 121     2000    1 .66700E+02   128.167
BIGSUB 122     2000    1 .41534E+02   128.167
BIGSUB 123     2000    1 .24242E+02   128.167
BIGSUB 124     2000    1 .16211E+02   128.167
BIGSUB 125     2000    1 .26587E+02   128.167
BIGSUB 126     2000    1 .65288E+02   128.167
BIGSUB 127     2000    1 .27142E+02   128.167
BIGSUB 128     2000    1 .88441E+02   128.167
BIGSUB 129     2000    1 .57422E+02   128.167
BIGSUB 130     2000    1 .12472E+01   128.167
BIGSUB 131     2000    1 .40099E+02   128.167
BIGSUB 132     2000    1 .73705E+02   128.167
BIGSUB 133     2000    1 .39979E+02   128.167
BIGSUB   1     2000    2 .45854E+02    80.042
BIGSUB   2     2000    2 .86189E+02    79.369
BIGSUB   3     2000    2 .27984E+02    80.042
BIGSUB   4     2000    2 .24648E+02    80.042
BIGSUB   5     2000    2 .27452E+02    74.239
BIGSUB   6     2000    2 .38126E+02    80.042
BIGSUB   7     2000    2 .33075E+00    80.042
BIGSUB   8     2000    2 .26952E+02    80.042
BIGSUB   9     2000    2 .22204E+02    74.239
BIGSUB  10     2000    2 .13462E+02    74.239
BIGSUB  11     2000    2 .22291E+02    80.042
BIGSUB  12     2000    2 .32784E+02    74.239
BIGSUB  13     2000    2 .79636E+01    74.239
BIGSUB  14     2000    2 .22689E+02    74.239
BIGSUB  15     2000    2 .26213E+01    74.239
BIGSUB  16     2000    2 .52920E-01    74.239
BIGSUB  17     2000    2 .33622E+01    74.239
BIGSUB  18     2000    2 .22436E+02    74.239
BIGSUB  19     2000    2 .41798E+02    72.938
BIGSUB  20     2000    2 .45842E+02    72.938
BIGSUB  21     2000    2 .41386E+02    70.979
BIGSUB  22     2000    2 .25137E+02    71.843
BIGSUB  23     2000    2 .79468E+02    74.239
BIGSUB  24     2000    2 .24827E+02    74.239
BIGSUB  25     2000    2 .22920E+02    72.938
BIGSUB  26     2000    2 .44894E+01    72.938
BIGSUB  27     2000    2 .10460E+02    74.239
BIGSUB  28     2000    2 .30092E+02    74.239
BIGSUB  29     2000    2 .10686E+02    72.938
BIGSUB  30     2000    2 .43433E+02    72.938
BIGSUB  31     2000    2 .32131E+02    72.938
BIGSUB  32     2000    2 .32989E+02    74.239
BIGSUB  33     2000    2 .38508E+02    74.239
BIGSUB  34     2000    2 .74614E+02    74.239
BIGSUB  35     2000    2 .10432E+02    72.938
BIGSUB  36     2000    2 .86277E+02    72.938
BIGSUB  37     2000    2 .13750E+02    72.938
BIGSUB  38     2000    2 .66594E+02    72.938
BIGSUB  39     2000    2 .49092E+01    74.239
BIGSUB  40     2000    2 .17745E+02    74.239
BIGSUB  41     2000    2 .19859E+02    74.239
BIGSUB  42     2000    2 .83111E+02    72.938
BIGSUB  43     2000    2 .68870E+02    74.239
BIGSUB  44     2000    2 .43924E+02    74.239
BIGSUB  45     2000    2 .31932E+02    74.239
BIGSUB  46     2000    2 .11068E+02    74.239
BIGSUB  47     2000    2 .75818E+02    72.938
BIGSUB  48     2000    2 .33194E+02    80.042
BIGSUB  49     2000    2 .57024E+02    74.239
BIGSUB  50     2000    2 .12993E+02    74.239
BIGSUB  51     2000    2 .69997E+02    80.042
BIGSUB  52     2000    2 .25723E+02    80.042
BIGSUB  53     2000    2 .28527E+02    80.042
BIGSUB  54     2000    2 .46893E+02    73.939
BIGSUB  55     2000    2 .30643E+02    73.939
BIGSUB  56     2000    2 .94436E+01    74.239
BIGSUB  57     2000    2 .15118E+01    74.239
BIGSUB  58     2000    2 .12948E+01    72.938
BIGSUB  59     2000    2 .33671E+02    80.042
BIGSUB  60     2000    2 .38787E+02    72.938
BIGSUB  61     2000    2 .54657E+02    80.042
BIGSUB  62     2000    2 .76482E+02    72.938
BIGSUB  63     2000    2 .94665E+01    72.938
BIGSUB  64     2000    2 .17570E+02    73.939
BIGSUB  65     2000    2 .39035E+02    73.939
BIGSUB  66     2000    2 .89894E+01    73.939
BIGSUB  67     2000    2 .90405E+00    73.939
BIGSUB  68     2000    2 .17293E+02    73.939
BIGSUB  69     2000    2 .20709E+02    73.939
BIGSUB  70     2000    2 .44265E+02    74.239
BIGSUB  71     2000    2 .12188E+02    72.938
BIGSUB  72     2000    2 .31804E+02    72.938
BIGSUB  73     2000    2 .63116E+01    72.938
BIGSUB  74     2000    2 .12692E+01    73.939
BIGSUB  75     2000    2 .30132E+02    74.239
BIGSUB  76     2000    2 .13600E+01    72.938
BIGSUB  77     2000    2 .25220E+02    72.938
BIGSUB  78     2000    2 .51909E+02    72.938
BIGSUB  79     2000    2 .33231E+02    73.939
BIGSUB  80     2000    2 .28811E+02    74.239
BIGSUB  81     2000    2 .63654E+01    72.938
BIGSUB  82     2000    2 .59182E+00    72.938
BIGSUB  83     2000    2 .47258E+02    74.939
BIGSUB  84     2000    2 .79373E+02    73.939
BIGSUB  85     2000    2 .58331E+02    74.939
BIGSUB  86     2000    2 .29852E+02    72.938
BIGSUB  87     2000    2 .25581E+02    72.938
BIGSUB  88     2000    2 .20477E+02    72.938
BIGSUB  89     2000    2 .22789E+02    73.939
BIGSUB  90     2000    2 .53191E+02    74.939
BIGSUB  91     2000    2 .24741E+02    75.539
BIGSUB  92     2000    2 .56077E+02    74.939
BIGSUB  93     2000    2 .66944E+00    74.939
BIGSUB  94     2000    2 .30369E+02    74.939
BIGSUB  95     2000    2 .95265E+01    74.939
BIGSUB  96     2000    2 .44356E+01    75.539
BIGSUB  97     2000    2 .17044E+02    75.539
BIGSUB  98     2000    2 .38880E+02    72.938
BIGSUB  99     2000    2 .10526E+03    73.939
BIGSUB 100     2000    2 .22712E+02    74.939
BIGSUB 101     2000    2 .12029E+02    74.939
BIGSUB 102     2000    2 .20023E+02    74.339
BIGSUB 103     2000    2 .41736E+02    74.339
BIGSUB 104     2000    2 .29717E+02    74.339
BIGSUB 105     2000    2 .20328E+02    75.539
BIGSUB 106     2000    2 .25620E+02    74.339
BIGSUB 107     2000    2 .29696E+02    75.539
BIGSUB 108     2000    2 .12128E+01    75.539
BIGSUB 109     2000    2 .38774E+02    75.539
BIGSUB 110     2000    2 .74938E+02    75.539
BIGSUB 111     2000    2 .29993E+02    75.539
BIGSUB 112     2000    2 .64651E+00    75.539
BIGSUB 113     2000    2 .66414E+02    74.939
BIGSUB 114     2000    2 .38803E+02    75.539
BIGSUB 115     2000    2 .32887E+02    75.539
BIGSUB 116     2000    2 .29806E+02    75.539
BIGSUB 117     2000    2 .81135E+01    75.539
BIGSUB 118     2000    2 .10668E+02    75.539
BIGSUB 119     2000    2 .82472E+02    74.339
BIGSUB 120     2000    2 .83543E+01    75.539
BIGSUB 121     2000    2 .66700E+02    75.539
BIGSUB 122     2000    2 .41534E+02    75.539
BIGSUB 123     2000    2 .24242E+02    75.539
BIGSUB 124     2000    2 .16211E+02    75.539
BIGSUB 125     2000    2 .26587E+02    75.539
BIGSUB 126     2000    2 .65288E+02    75.539
BIGSUB 127     2000    2 .27142E+02    75.539
BIGSUB 128     2000    2 .88441E+02    75.539
BIGSUB 129     2000    2 .57422E+02    75.539
BIGSUB 130     2000    2 .12472E+01    75.539
BIGSUB 131     2000    2 .40099E+02    75.539
BIGSUB 132     2000    2 .73705E+02    75.539
BIGSUB 133     2000    2 .39979E+02    75.539
BIGSUB   1     2000    3 .45854E+02   188.398
BIGSUB   2     2000    3 .86189E+02   186.815
BIGSUB   3     2000    3 .27984E+02   188.398
BIGSUB   4     2000    3 .24648E+02   188.398
BIGSUB   5     2000    3 .27452E+02   179.794
BIGSUB   6     2000    3 .38126E+02   188.398
BIGSUB   7     2000    3 .33075E+00   188.398
BIGSUB   8     2000    3 .26952E+02   188.398
BIGSUB   9     2000    3 .22204E+02   179.794
BIGSUB  10     2000    3 .13462E+02   179.794
BIGSUB  11     2000    3 .22291E+02   188.398
BIGSUB  12     2000    3 .32784E+02   179.794
BIGSUB  13     2000    3 .79636E+01   179.794
BIGSUB  14     2000    3 .22689E+02   179.794
BIGSUB  15     2000    3 .26213E+01   179.794
BIGSUB  16     2000    3 .52920E-01   179.794
BIGSUB  17     2000    3 .33622E+01   179.794
BIGSUB  18     2000    3 .22436E+02   179.794
BIGSUB  19     2000    3 .41798E+02   174.691
BIGSUB  20     2000    3 .45842E+02   174.691
BIGSUB  21     2000    3 .41386E+02   170.000
BIGSUB  22     2000    3 .25137E+02   172.068
BIGSUB  23     2000    3 .79468E+02   179.794
BIGSUB  24     2000    3 .24827E+02   179.794
BIGSUB  25     2000    3 .22920E+02   174.691
BIGSUB  26     2000    3 .44894E+01   174.691
BIGSUB  27     2000    3 .10460E+02   179.794
BIGSUB  28     2000    3 .30092E+02   179.794
BIGSUB  29     2000    3 .10686E+02   174.691
BIGSUB  30     2000    3 .43433E+02   174.691
BIGSUB  31     2000    3 .32131E+02   174.691
BIGSUB  32     2000    3 .32989E+02   179.794
BIGSUB  33     2000    3 .38508E+02   179.794
BIGSUB  34     2000    3 .74614E+02   179.794
BIGSUB  35     2000    3 .10432E+02   174.691
BIGSUB  36     2000    3 .86277E+02   174.691
BIGSUB  37     2000    3 .13750E+02   174.691
BIGSUB  38     2000    3 .66594E+02   174.691
BIGSUB  39     2000    3 .49092E+01   179.794
BIGSUB  40     2000    3 .17745E+02   179.794
BIGSUB  41     2000    3 .19859E+02   179.794
BIGSUB  42     2000    3 .83111E+02   174.691
BIGSUB  43     2000    3 .68870E+02   179.794
BIGSUB  44     2000    3 .43924E+02   179.794
BIGSUB  45     2000    3 .31932E+02   179.794
BIGSUB  46     2000    3 .11068E+02   179.794
BIGSUB  47     2000    3 .75818E+02   174.691
BIGSUB  48     2000    3 .33194E+02   188.398
BIGSUB  49     2000    3 .57024E+02   179.794
BIGSUB  50     2000    3 .12993E+02   179.794
BIGSUB  51     2000    3 .69997E+02   188.398
BIGSUB  52     2000    3 .25723E+02   188.398
BIGSUB  53     2000    3 .28527E+02   188.398
BIGSUB  54     2000    3 .46893E+02   195.102
BIGSUB  55     2000    3 .30643E+02   195.102
BIGSUB  56     2000    3 .94436E+01   179.794
BIGSUB  57     2000    3 .15118E+01   179.794
BIGSUB  58     2000    3 .12948E+01   174.691
BIGSUB  59     2000    3 .33671E+02   188.398
BIGSUB  60     2000    3 .38787E+02   174.691
BIGSUB  61     2000    3 .54657E+02   188.398
BIGSUB  62     2000    3 .76482E+02   174.691
BIGSUB  63     2000    3 .94665E+01   174.691
BIGSUB  64     2000    3 .17570E+02   195.102
BIGSUB  65     2000    3 .39035E+02   195.102
BIGSUB  66     2000    3 .89894E+01   195.102
BIGSUB  67     2000    3 .90405E+00   195.102
BIGSUB  68     2000    3 .17293E+02   195.102
BIGSUB  69     2000    3 .20709E+02   195.102
BIGSUB  70     2000    3 .44265E+02   179.794
BIGSUB  71     2000    3 .12188E+02   174.691
BIGSUB  72     2000    3 .31804E+02   174.691
BIGSUB  73     2000    3 .63116E+01   174.691
BIGSUB  74     2000    3 .12692E+01   195.102
BIGSUB  75     2000    3 .30132E+02   179.794
BIGSUB  76     2000    3 .13600E+01   174.691
BIGSUB  77     2000    3 .25220E+02   174.691
BIGSUB  78     2000    3 .51909E+02   174.691
BIGSUB  79     2000    3 .33231E+02   195.102
BIGSUB  80     2000    3 .28811E+02   179.794
BIGSUB  81     2000    3 .63654E+01   174.691
BIGSUB  82     2000    3 .59182E+00   174.691
BIGSUB  83     2000    3 .47258E+02   190.399
BIGSUB  84     2000    3 .79373E+02   195.102
BIGSUB  85     2000    3 .58331E+02   190.399
BIGSUB  86     2000    3 .29852E+02   174.691
BIGSUB  87     2000    3 .25581E+02   174.691
BIGSUB  88     2000    3 .20477E+02   174.691
BIGSUB  89     2000    3 .22789E+02   195.102
BIGSUB  90     2000    3 .53191E+02   190.399
BIGSUB  91     2000    3 .24741E+02   193.601
BIGSUB  92     2000    3 .56077E+02   190.399
BIGSUB  93     2000    3 .66944E+00   190.399
BIGSUB  94     2000    3 .30369E+02   190.399
BIGSUB  95     2000    3 .95265E+01   190.399
BIGSUB  96     2000    3 .44356E+01   193.601
BIGSUB  97     2000    3 .17044E+02   193.601
BIGSUB  98     2000    3 .38880E+02   174.691
BIGSUB  99     2000    3 .10526E+03   195.102
BIGSUB 100     2000    3 .22712E+02   190.399
BIGSUB 101     2000    3 .12029E+02   190.399
BIGSUB 102     2000    3 .20023E+02   202.005
BIGSUB 103     2000    3 .41736E+02   202.005
BIGSUB 104     2000    3 .29717E+02   202.005
BIGSUB 105     2000    3 .20328E+02   193.601
BIGSUB 106     2000    3 .25620E+02   202.005
BIGSUB 107     2000    3 .29696E+02   193.601
BIGSUB 108     2000    3 .12128E+01   193.601
BIGSUB 109     2000    3 .38774E+02   193.601
BIGSUB 110     2000    3 .74938E+02   193.601
BIGSUB 111     2000    3 .29993E+02   193.601
BIGSUB 112     2000    3 .64651E+00   193.601
BIGSUB 113     2000    3 .66414E+02   190.399
BIGSUB 114     2000    3 .38803E+02   193.601
BIGSUB 115     2000    3 .32887E+02   193.601
BIGSUB 116     2000    3 .29806E+02   193.601
BIGSUB 117     2000    3 .81135E+01   193.601
BIGSUB 118     2000    3 .10668E+02   193.601
BIGSUB 119     2000    3 .82472E+02   202.005
BIGSUB 120     2000    3 .83543E+01   193.601
BIGSUB 121     2000    3 .66700E+02   193.601
BIGSUB 122     2000    3 .41534E+02   193.601
BIGSUB 123     2000    3 .24242E+02   193.601
BIGSUB 124     2000    3 .16211E+02   193.601
BIGSUB 125     2000    3 .26587E+02   193.601
BIGSUB 126     2000    3 .65288E+02   193.601
BIGSUB 127     2000    3 .27142E+02   193.601
BIGSUB 128     2000    3 .88441E+02   193.601
BIGSUB 129     2000    3 .57422E+02   193.601
BIGSUB 130     2000    3 .12472E+01   193.601
BIGSUB 131     2000    3 .40099E+02   193.601
BIGSUB 132     2000    3 .73705E+02   193.601
BIGSUB 133     2000    3 .39979E+02   193.601
BIGSUB   1     2000    4 .45854E+02   166.187
BIGSUB   2     2000    4 .86189E+02   164.790
BIGSUB   3     2000    4 .27984E+02   166.187
BIGSUB   4     2000    4 .24648E+02   166.187
BIGSUB   5     2000    4 .27452E+02   193.801
BIGSUB   6     2000    4 .38126E+02   166.187
BIGSUB   7     2000    4 .33075E+00   166.187
BIGSUB   8     2000    4 .26952E+02   166.187
BIGSUB   9     2000    4 .22204E+02   193.801
BIGSUB  10     2000    4 .13462E+02   193.801
BIGSUB  11     2000    4 .22291E+02   166.187
BIGSUB  12     2000    4 .32784E+02   193.801
BIGSUB  13     2000    4 .79636E+01   193.801
BIGSUB  14     2000    4 .22689E+02   193.801
BIGSUB  15     2000    4 .26213E+01   193.801
BIGSUB  16     2000    4 .52920E-01   193.801
BIGSUB  17     2000    4 .33622E+01   193.801
BIGSUB  18     2000    4 .22436E+02   193.801
BIGSUB  19     2000    4 .41798E+02   200.905
BIGSUB  20     2000    4 .45842E+02   200.905
BIGSUB  21     2000    4 .41386E+02   195.510
BIGSUB  22     2000    4 .25137E+02   197.888
BIGSUB  23     2000    4 .79468E+02   193.801
BIGSUB  24     2000    4 .24827E+02   193.801
BIGSUB  25     2000    4 .22920E+02   200.905
BIGSUB  26     2000    4 .44894E+01   200.905
BIGSUB  27     2000    4 .10460E+02   193.801
BIGSUB  28     2000    4 .30092E+02   193.801
BIGSUB  29     2000    4 .10686E+02   200.905
BIGSUB  30     2000    4 .43433E+02   200.905
BIGSUB  31     2000    4 .32131E+02   200.905
BIGSUB  32     2000    4 .32989E+02   193.801
BIGSUB  33     2000    4 .38508E+02   193.801
BIGSUB  34     2000    4 .74614E+02   193.801
BIGSUB  35     2000    4 .10432E+02   200.905
BIGSUB  36     2000    4 .86277E+02   200.905
BIGSUB  37     2000    4 .13750E+02   200.905
BIGSUB  38     2000    4 .66594E+02   200.905
BIGSUB  39     2000    4 .49092E+01   193.801
BIGSUB  40     2000    4 .17745E+02   193.801
BIGSUB  41     2000    4 .19859E+02   193.801
BIGSUB  42     2000    4 .83111E+02   200.905
BIGSUB  43     2000    4 .68870E+02   193.801
BIGSUB  44     2000    4 .43924E+02   193.801
BIGSUB  45     2000    4 .31932E+02   193.801
BIGSUB  46     2000    4 .11068E+02   193.801
BIGSUB  47     2000    4 .75818E+02   200.905
BIGSUB  48     2000    4 .33194E+02   166.187
BIGSUB  49     2000    4 .57024E+02   193.801
BIGSUB  50     2000    4 .12993E+02   193.801
BIGSUB  51     2000    4 .69997E+02   166.187
BIGSUB  52     2000    4 .25723E+02   166.187
BIGSUB  53     2000    4 .28527E+02   166.187
BIGSUB  54     2000    4 .46893E+02   169.989
BIGSUB  55     2000    4 .30643E+02   169.989
BIGSUB  56     2000    4 .94436E+01   193.801
BIGSUB  57     2000    4 .15118E+01   193.801
BIGSUB  58     2000    4 .12948E+01   200.905
BIGSUB  59     2000    4 .33671E+02   166.187
BIGSUB  60     2000    4 .38787E+02   200.905
BIGSUB  61     2000    4 .54657E+02   166.187
BIGSUB  62     2000    4 .76482E+02   200.905
BIGSUB  63     2000    4 .94665E+01   200.905
BIGSUB  64     2000    4 .17570E+02   169.989
BIGSUB  65     2000    4 .39035E+02   169.989
BIGSUB  66     2000    4 .89894E+01   169.989
BIGSUB  67     2000    4 .90405E+00   169.989
BIGSUB  68     2000    4 .17293E+02   169.989
BIGSUB  69     2000    4 .20709E+02   169.989
BIGSUB  70     2000    4 .44265E+02   193.801
BIGSUB  71     2000    4 .12188E+02   200.905
BIGSUB  72     2000    4 .31804E+02   200.905
BIGSUB  73     2000    4 .63116E+01   200.905
BIGSUB  74     2000    4 .12692E+01   169.989
BIGSUB  75     2000    4 .30132E+02   193.801
BIGSUB  76     2000    4 .13600E+01   200.905
BIGSUB  77     2000    4 .25220E+02   200.905
BIGSUB  78     2000    4 .51909E+02   200.905
BIGSUB  79     2000    4 .33231E+02   169.989
BIGSUB  80     2000    4 .28811E+02   193.801
BIGSUB  81     2000    4 .63654E+01   200.905
BIGSUB  82     2000    4 .59182E+00   200.905
BIGSUB  83     2000    4 .47258E+02   180.894
BIGSUB  84     2000    4 .79373E+02   169.989
BIGSUB  85     2000    4 .58331E+02   180.894
BIGSUB  86     2000    4 .29852E+02   200.905
BIGSUB  87     2000    4 .25581E+02   200.905
BIGSUB  88     2000    4 .20477E+02   200.905
BIGSUB  89     2000    4 .22789E+02   169.989
BIGSUB  90     2000    4 .53191E+02   180.894
BIGSUB  91     2000    4 .24741E+02   212.511
BIGSUB  92     2000    4 .56077E+02   180.894
BIGSUB  93     2000    4 .66944E+00   180.894
BIGSUB  94     2000    4 .30369E+02   180.894
BIGSUB  95     2000    4 .95265E+01   180.894
BIGSUB  96     2000    4 .44356E+01   212.511
BIGSUB  97     2000    4 .17044E+02   212.511
BIGSUB  98     2000    4 .38880E+02   200.905
BIGSUB  99     2000    4 .10526E+03   169.989
BIGSUB 100     2000    4 .22712E+02   180.894
BIGSUB 101     2000    4 .12029E+02   180.894
BIGSUB 102     2000    4 .20023E+02   197.103
BIGSUB 103     2000    4 .41736E+02   197.103
BIGSUB 104     2000    4 .29717E+02   197.103
BIGSUB 105     2000    4 .20328E+02   212.511
BIGSUB 106     2000    4 .25620E+02   197.103
BIGSUB 107     2000    4 .29696E+02   212.511
BIGSUB 108     2000    4 .12128E+01   212.511
BIGSUB 109     2000    4 .38774E+02   212.511
BIGSUB 110     2000    4 .74938E+02   212.511
BIGSUB 111     2000    4 .29993E+02   212.511
BIGSUB 112     2000    4 .64651E+00   212.511
BIGSUB 113     2000    4 .66414E+02   180.894
BIGSUB 114     2000    4 .38803E+02   212.511
BIGSUB 115     2000    4 .32887E+02   212.511
BIGSUB 116     2000    4 .29806E+02   212.511
BIGSUB 117     2000    4 .81135E+01   212.511
BIGSUB 118     2000    4 .10668E+02   212.511
BIGSUB 119     2000    4 .82472E+02   197.103
BIGSUB 120     2000    4 .83543E+01   212.511
BIGSUB 121     2000    4 .66700E+02   212.511
BIGSUB 122     2000    4 .41534E+02   212.511
BIGSUB 123     2000    4 .24242E+02   212.511
BIGSUB 124     2000    4 .16211E+02   212.511
BIGSUB 125     2000    4 .26587E+02   212.511
BIGSUB 126     2000    4 .65288E+02   212.511
BIGSUB 127     2000    4 .27142E+02   212.511
BIGSUB 128     2000    4 .88441E+02   212.511
BIGSUB 129     2000    4 .57422E+02   212.511
BIGSUB 130     2000    4 .12472E+01   212.511
BIGSUB 131     2000    4 .40099E+02   212.511
BIGSUB 132     2000    4 .73705E+02   212.511
BIGSUB 133     2000    4 .39979E+02   212.511
BIGSUB   1     2000    5 .45854E+02   175.091
BIGSUB   2     2000    5 .86189E+02   173.620
BIGSUB   3     2000    5 .27984E+02   175.091
BIGSUB   4     2000    5 .24648E+02   175.091
BIGSUB   5     2000    5 .27452E+02   156.882
BIGSUB   6     2000    5 .38126E+02   175.091
BIGSUB   7     2000    5 .33075E+00   175.091
BIGSUB   8     2000    5 .26952E+02   175.091
BIGSUB   9     2000    5 .22204E+02   156.882
BIGSUB  10     2000    5 .13462E+02   156.882
BIGSUB  11     2000    5 .22291E+02   175.091
BIGSUB  12     2000    5 .32784E+02   156.882
BIGSUB  13     2000    5 .79636E+01   156.882
BIGSUB  14     2000    5 .22689E+02   156.882
BIGSUB  15     2000    5 .26213E+01   156.882
BIGSUB  16     2000    5 .52920E-01   156.882
BIGSUB  17     2000    5 .33622E+01   156.882
BIGSUB  18     2000    5 .22436E+02   156.882
BIGSUB  19     2000    5 .41798E+02   135.270
BIGSUB  20     2000    5 .45842E+02   135.271
BIGSUB  21     2000    5 .41386E+02   131.638
BIGSUB  22     2000    5 .25137E+02   133.239
BIGSUB  23     2000    5 .79468E+02   156.882
BIGSUB  24     2000    5 .24827E+02   156.882
BIGSUB  25     2000    5 .22920E+02   135.271
BIGSUB  26     2000    5 .44894E+01   135.271
BIGSUB  27     2000    5 .10460E+02   156.882
BIGSUB  28     2000    5 .30092E+02   156.882
BIGSUB  29     2000    5 .10686E+02   135.270
BIGSUB  30     2000    5 .43433E+02   135.270
BIGSUB  31     2000    5 .32131E+02   135.270
BIGSUB  32     2000    5 .32989E+02   156.882
BIGSUB  33     2000    5 .38508E+02   156.882
BIGSUB  34     2000    5 .74614E+02   156.882
BIGSUB  35     2000    5 .10432E+02   135.270
BIGSUB  36     2000    5 .86277E+02   135.270
BIGSUB  37     2000    5 .13750E+02   135.270
BIGSUB  38     2000    5 .66594E+02   135.271
BIGSUB  39     2000    5 .49092E+01   156.882
BIGSUB  40     2000    5 .17745E+02   156.882
BIGSUB  41     2000    5 .19859E+02   156.882
BIGSUB  42     2000    5 .83111E+02   135.271
BIGSUB  43     2000    5 .68870E+02   156.882
BIGSUB  44     2000    5 .43924E+02   156.882
BIGSUB  45     2000    5 .31932E+02   156.882
BIGSUB  46     2000    5 .11068E+02   156.882
BIGSUB  47     2000    5 .75818E+02   135.271
BIGSUB  48     2000    5 .33194E+02   175.091
BIGSUB  49     2000    5 .57024E+02   156.882
BIGSUB  50     2000    5 .12993E+02   156.882
BIGSUB  51     2000    5 .69997E+02   175.091
BIGSUB  52     2000    5 .25723E+02   175.091
BIGSUB  53     2000    5 .28527E+02   175.091
BIGSUB  54     2000    5 .46893E+02   185.897
BIGSUB  55     2000    5 .30643E+02   185.897
BIGSUB  56     2000    5 .94436E+01   156.882
BIGSUB  57     2000    5 .15118E+01   156.882
BIGSUB  58     2000    5 .12948E+01   135.270
BIGSUB  59     2000    5 .33671E+02   175.091
BIGSUB  60     2000    5 .38787E+02   135.270
BIGSUB  61     2000    5 .54657E+02   175.091
BIGSUB  62     2000    5 .76482E+02   135.270
BIGSUB  63     2000    5 .94665E+01   135.270
BIGSUB  64     2000    5 .17570E+02   185.897
BIGSUB  65     2000    5 .39035E+02   185.897
BIGSUB  66     2000    5 .89894E+01   185.897
BIGSUB  67     2000    5 .90405E+00   185.897
BIGSUB  68     2000    5 .17293E+02   185.897
BIGSUB  69     2000    5 .20709E+02   185.897
BIGSUB  70     2000    5 .44265E+02   156.882
BIGSUB  71     2000    5 .12188E+02   135.271
BIGSUB  72     2000    5 .31804E+02   135.270
BIGSUB  73     2000    5 .63116E+01   135.270
BIGSUB  74     2000    5 .12692E+01   185.897
BIGSUB  75     2000    5 .30132E+02   156.882
BIGSUB  76     2000    5 .13600E+01   135.270
BIGSUB  77     2000    5 .25220E+02   135.270
BIGSUB  78     2000    5 .51909E+02   135.270
BIGSUB  79     2000    5 .33231E+02   185.897
BIGSUB  80     2000    5 .28811E+02   156.882
BIGSUB  81     2000    5 .63654E+01   135.270
BIGSUB  82     2000    5 .59182E+00   135.270
BIGSUB  83     2000    5 .47258E+02   174.391
BIGSUB  84     2000    5 .79373E+02   185.897
BIGSUB  85     2000    5 .58331E+02   174.391
BIGSUB  86     2000    5 .29852E+02   135.270
BIGSUB  87     2000    5 .25581E+02   135.271
BIGSUB  88     2000    5 .20477E+02   135.270
BIGSUB  89     2000    5 .22789E+02   185.897
BIGSUB  90     2000    5 .53191E+02   174.391
BIGSUB  91     2000    5 .24741E+02   116.561
BIGSUB  92     2000    5 .56077E+02   174.391
BIGSUB  93     2000    5 .66944E+00   174.391
BIGSUB  94     2000    5 .30369E+02   174.391
BIGSUB  95     2000    5 .95265E+01   174.391
BIGSUB  96     2000    5 .44356E+01   116.561
BIGSUB  97     2000    5 .17044E+02   116.561
BIGSUB  98     2000    5 .38880E+02   135.271
BIGSUB  99     2000    5 .10526E+03   185.897
BIGSUB 100     2000    5 .22712E+02   174.391
BIGSUB 101     2000    5 .12029E+02   174.391
BIGSUB 102     2000    5 .20023E+02   146.276
BIGSUB 103     2000    5 .41736E+02   146.276
BIGSUB 104     2000    5 .29717E+02   146.276
BIGSUB 105     2000    5 .20328E+02   116.561
BIGSUB 106     2000    5 .25620E+02   146.276
BIGSUB 107     2000    5 .29696E+02   116.561
BIGSUB 108     2000    5 .12128E+01   116.561
BIGSUB 109     2000    5 .38774E+02   116.561
BIGSUB 110     2000    5 .74938E+02   116.561
BIGSUB 111     2000    5 .29993E+02   116.561
BIGSUB 112     2000    5 .64651E+00   116.561
BIGSUB 113     2000    5 .66414E+02   174.391
BIGSUB 114     2000    5 .38803E+02   116.561
BIGSUB 115     2000    5 .32887E+02   116.561
BIGSUB 116     2000    5 .29806E+02   116.561
BIGSUB 117     2000    5 .81135E+01   116.561
BIGSUB 118     2000    5 .10668E+02   116.561
BIGSUB 119     2000    5 .82472E+02   146.276
BIGSUB 120     2000    5 .83543E+01   116.561
BIGSUB 121     2000    5 .66700E+02   116.561
BIGSUB 122     2000    5 .41534E+02   116.561
BIGSUB 123     2000    5 .24242E+02   116.561
BIGSUB 124     2000    5 .16211E+02   116.561
BIGSUB 125     2000    5 .26587E+02   116.561
BIGSUB 126     2000    5 .65288E+02   116.561
BIGSUB 127     2000    5 .27142E+02   116.561
BIGSUB 128     2000    5 .88441E+02   116.561
BIGSUB 129     2000    5 .57422E+02   116.561
BIGSUB 130     2000    5 .12472E+01   116.561
BIGSUB 131     2000    5 .40099E+02   116.561
BIGSUB 132     2000    5 .73705E+02   116.561
BIGSUB 133     2000    5 .39979E+02   116.561
BIGSUB   1     2000    6 .45854E+02   437.528
BIGSUB   2     2000    6 .86189E+02   433.852
BIGSUB   3     2000    6 .27984E+02   437.528
BIGSUB   4     2000    6 .24648E+02   437.528
BIGSUB   5     2000    6 .27452E+02   396.707
BIGSUB   6     2000    6 .38126E+02   437.528
BIGSUB   7     2000    6 .33075E+00   437.528
BIGSUB   8     2000    6 .26952E+02   437.528
BIGSUB   9     2000    6 .22204E+02   396.707
BIGSUB  10     2000    6 .13462E+02   396.707
BIGSUB  11     2000    6 .22291E+02   437.528
BIGSUB  12     2000    6 .32784E+02   396.707
BIGSUB  13     2000    6 .79636E+01   396.707
BIGSUB  14     2000    6 .22689E+02   396.707
BIGSUB  15     2000    6 .26213E+01   396.707
BIGSUB  16     2000    6 .52920E-01   396.707
BIGSUB  17     2000    6 .33622E+01   396.707
BIGSUB  18     2000    6 .22436E+02   396.707
BIGSUB  19     2000    6 .41798E+02   406.712
BIGSUB  20     2000    6 .45842E+02   406.712
BIGSUB  21     2000    6 .41386E+02   395.791
BIGSUB  22     2000    6 .25137E+02   400.604
BIGSUB  23     2000    6 .79468E+02   396.707
BIGSUB  24     2000    6 .24827E+02   396.707
BIGSUB  25     2000    6 .22920E+02   406.712
BIGSUB  26     2000    6 .44894E+01   406.712
BIGSUB  27     2000    6 .10460E+02   396.707
BIGSUB  28     2000    6 .30092E+02   396.707
BIGSUB  29     2000    6 .10686E+02   406.712
BIGSUB  30     2000    6 .43433E+02   406.712
BIGSUB  31     2000    6 .32131E+02   406.712
BIGSUB  32     2000    6 .32989E+02   396.707
BIGSUB  33     2000    6 .38508E+02   396.707
BIGSUB  34     2000    6 .74614E+02   396.707
BIGSUB  35     2000    6 .10432E+02   406.712
BIGSUB  36     2000    6 .86277E+02   406.712
BIGSUB  37     2000    6 .13750E+02   406.712
BIGSUB  38     2000    6 .66594E+02   406.712
BIGSUB  39     2000    6 .49092E+01   396.707
BIGSUB  40     2000    6 .17745E+02   396.707
BIGSUB  41     2000    6 .19859E+02   396.707
BIGSUB  42     2000    6 .83111E+02   406.712
BIGSUB  43     2000    6 .68870E+02   396.707
BIGSUB  44     2000    6 .43924E+02   396.707
BIGSUB  45     2000    6 .31932E+02   396.707
BIGSUB  46     2000    6 .11068E+02   396.707
BIGSUB  47     2000    6 .75818E+02   406.712
BIGSUB  48     2000    6 .33194E+02   437.528
BIGSUB  49     2000    6 .57024E+02   396.707
BIGSUB  50     2000    6 .12993E+02   396.707
BIGSUB  51     2000    6 .69997E+02   437.528
BIGSUB  52     2000    6 .25723E+02   437.528
BIGSUB  53     2000    6 .28527E+02   437.528
BIGSUB  54     2000    6 .46893E+02   389.103
BIGSUB  55     2000    6 .30643E+02   389.103
BIGSUB  56     2000    6 .94436E+01   396.707
BIGSUB  57     2000    6 .15118E+01   396.707
BIGSUB  58     2000    6 .12948E+01   406.712
BIGSUB  59     2000    6 .33671E+02   437.528
BIGSUB  60     2000    6 .38787E+02   406.712
BIGSUB  61     2000    6 .54657E+02   437.528
BIGSUB  62     2000    6 .76482E+02   406.712
BIGSUB  63     2000    6 .94665E+01   406.712
BIGSUB  64     2000    6 .17570E+02   389.103
BIGSUB  65     2000    6 .39035E+02   389.103
BIGSUB  66     2000    6 .89894E+01   389.103
BIGSUB  67     2000    6 .90405E+00   389.103
BIGSUB  68     2000    6 .17293E+02   389.103
BIGSUB  69     2000    6 .20709E+02   389.103
BIGSUB  70     2000    6 .44265E+02   396.707
BIGSUB  71     2000    6 .12188E+02   406.712
BIGSUB  72     2000    6 .31804E+02   406.712
BIGSUB  73     2000    6 .63116E+01   406.712
BIGSUB  74     2000    6 .12692E+01   389.103
BIGSUB  75     2000    6 .30132E+02   396.707
BIGSUB  76     2000    6 .13600E+01   406.712
BIGSUB  77     2000    6 .25220E+02   406.712
BIGSUB  78     2000    6 .51909E+02   406.712
BIGSUB  79     2000    6 .33231E+02   389.103
BIGSUB  80     2000    6 .28811E+02   396.707
BIGSUB  81     2000    6 .63654E+01   406.712
BIGSUB  82     2000    6 .59182E+00   406.712
BIGSUB  83     2000    6 .47258E+02   388.202
BIGSUB  84     2000    6 .79373E+02   389.103
BIGSUB  85     2000    6 .58331E+02   388.202
BIGSUB  86     2000    6 .29852E+02   406.712
BIGSUB  87     2000    6 .25581E+02   406.712
BIGSUB  88     2000    6 .20477E+02   406.712
BIGSUB  89     2000    6 .22789E+02   389.103
BIGSUB  90     2000    6 .53191E+02   388.202
BIGSUB  91     2000    6 .24741E+02   337.976
BIGSUB  92     2000    6 .56077E+02   388.202
BIGSUB  93     2000    6 .66944E+00   388.202
BIGSUB  94     2000    6 .30369E+02   388.202
BIGSUB  95     2000    6 .95265E+01   388.202
BIGSUB  96     2000    6 .44356E+01   337.976
BIGSUB  97     2000    6 .17044E+02   337.976
BIGSUB  98     2000    6 .38880E+02   406.712
BIGSUB  99     2000    6 .10526E+03   389.103
BIGSUB 100     2000    6 .22712E+02   388.202
BIGSUB 101     2000    6 .12029E+02   388.202
BIGSUB 102     2000    6 .20023E+02   383.000
BIGSUB 103     2000    6 .41736E+02   383.000
BIGSUB 104     2000    6 .29717E+02   383.000
BIGSUB 105     2000    6 .20328E+02   337.976
BIGSUB 106     2000    6 .25620E+02   383.000
BIGSUB 107     2000    6 .29696E+02   337.976
BIGSUB 108     2000    6 .12128E+01   337.976
BIGSUB 109     2000    6 .38774E+02   337.976
BIGSUB 110     2000    6 .74938E+02   337.976
BIGSUB 111     2000    6 .29993E+02   337.976
BIGSUB 112     2000    6 .64651E+00   337.976
BIGSUB 113     2000    6 .66414E+02   388.202
BIGSUB 114     2000    6 .38803E+02   337.976
BIGSUB 115     2000    6 .32887E+02   337.976
BIGSUB 116     2000    6 .29806E+02   337.976
BIGSUB 117     2000    6 .81135E+01   337.976
BIGSUB 118     2000    6 .10668E+02   337.976
BIGSUB 119     2000    6 .82472E+02   383.000
BIGSUB 120     2000    6 .83543E+01   337.976
BIGSUB 121     2000    6 .66700E+02   337.976
BIGSUB 122     2000    6 .41534E+02   337.976
BIGSUB 123     2000    6 .24242E+02   337.976
BIGSUB 124     2000    6 .16211E+02   337.976
BIGSUB 125     2000    6 .26587E+02   337.976
BIGSUB 126     2000    6 .65288E+02   337.976
BIGSUB 127     2000    6 .27142E+02   337.976
BIGSUB 128     2000    6 .88441E+02   337.976
BIGSUB 129     2000    6 .57422E+02   337.976
BIGSUB 130     2000    6 .12472E+01   337.976
BIGSUB 131     2000    6 .40099E+02   337.976
BIGSUB 132     2000    6 .73705E+02   337.976
BIGSUB 133     2000    6 .39979E+02   337.976
BIGSUB   1     2000    7 .45854E+02   166.987
BIGSUB   2     2000    7 .86189E+02   165.584
BIGSUB   3     2000    7 .27984E+02   166.987
BIGSUB   4     2000    7 .24648E+02   166.987
BIGSUB   5     2000    7 .27452E+02   119.862
BIGSUB   6     2000    7 .38126E+02   166.987
BIGSUB   7     2000    7 .33075E+00   166.987
BIGSUB   8     2000    7 .26952E+02   166.987
BIGSUB   9     2000    7 .22204E+02   119.862
BIGSUB  10     2000    7 .13462E+02   119.862
BIGSUB  11     2000    7 .22291E+02   166.987
BIGSUB  12     2000    7 .32784E+02   119.862
BIGSUB  13     2000    7 .79636E+01   119.862
BIGSUB  14     2000    7 .22689E+02   119.862
BIGSUB  15     2000    7 .26213E+01   119.862
BIGSUB  16     2000    7 .52920E-01   119.862
BIGSUB  17     2000    7 .33622E+01   119.862
BIGSUB  18     2000    7 .22436E+02   119.862
BIGSUB  19     2000    7 .41798E+02   111.858
BIGSUB  20     2000    7 .45842E+02   111.858
BIGSUB  21     2000    7 .41386E+02   108.855
BIGSUB  22     2000    7 .25137E+02   110.178
BIGSUB  23     2000    7 .79468E+02   119.862
BIGSUB  24     2000    7 .24827E+02   119.863
BIGSUB  25     2000    7 .22920E+02   111.858
BIGSUB  26     2000    7 .44894E+01   111.858
BIGSUB  27     2000    7 .10460E+02   119.862
BIGSUB  28     2000    7 .30092E+02   119.862
BIGSUB  29     2000    7 .10686E+02   111.858
BIGSUB  30     2000    7 .43433E+02   111.858
BIGSUB  31     2000    7 .32131E+02   111.858
BIGSUB  32     2000    7 .32989E+02   119.862
BIGSUB  33     2000    7 .38508E+02   119.862
BIGSUB  34     2000    7 .74614E+02   119.862
BIGSUB  35     2000    7 .10432E+02   111.858
BIGSUB  36     2000    7 .86277E+02   111.858
BIGSUB  37     2000    7 .13750E+02   111.858
BIGSUB  38     2000    7 .66594E+02   111.858
BIGSUB  39     2000    7 .49092E+01   119.863
BIGSUB  40     2000    7 .17745E+02   119.862
BIGSUB  41     2000    7 .19859E+02   119.862
BIGSUB  42     2000    7 .83111E+02   111.858
BIGSUB  43     2000    7 .68870E+02   119.862
BIGSUB  44     2000    7 .43924E+02   119.863
BIGSUB  45     2000    7 .31932E+02   119.862
BIGSUB  46     2000    7 .11068E+02   119.862
BIGSUB  47     2000    7 .75818E+02   111.858
BIGSUB  48     2000    7 .33194E+02   166.987
BIGSUB  49     2000    7 .57024E+02   119.862
BIGSUB  50     2000    7 .12993E+02   119.862
BIGSUB  51     2000    7 .69997E+02   166.987
BIGSUB  52     2000    7 .25723E+02   166.987
BIGSUB  53     2000    7 .28527E+02   166.987
BIGSUB  54     2000    7 .46893E+02   134.670
BIGSUB  55     2000    7 .30643E+02   134.670
BIGSUB  56     2000    7 .94436E+01   119.862
BIGSUB  57     2000    7 .15118E+01   119.862
BIGSUB  58     2000    7 .12948E+01   111.858
BIGSUB  59     2000    7 .33671E+02   166.987
BIGSUB  60     2000    7 .38787E+02   111.858
BIGSUB  61     2000    7 .54657E+02   166.987
BIGSUB  62     2000    7 .76482E+02   111.858
BIGSUB  63     2000    7 .94665E+01   111.858
BIGSUB  64     2000    7 .17570E+02   134.670
BIGSUB  65     2000    7 .39035E+02   134.670
BIGSUB  66     2000    7 .89894E+01   134.670
BIGSUB  67     2000    7 .90405E+00   134.670
BIGSUB  68     2000    7 .17293E+02   134.670
BIGSUB  69     2000    7 .20709E+02   134.670
BIGSUB  70     2000    7 .44265E+02   119.862
BIGSUB  71     2000    7 .12188E+02   111.858
BIGSUB  72     2000    7 .31804E+02   111.858
BIGSUB  73     2000    7 .63116E+01   111.858
BIGSUB  74     2000    7 .12692E+01   134.670
BIGSUB  75     2000    7 .30132E+02   119.862
BIGSUB  76     2000    7 .13600E+01   111.858
BIGSUB  77     2000    7 .25220E+02   111.858
BIGSUB  78     2000    7 .51909E+02   111.858
BIGSUB  79     2000    7 .33231E+02   134.670
BIGSUB  80     2000    7 .28811E+02   119.862
BIGSUB  81     2000    7 .63654E+01   111.858
BIGSUB  82     2000    7 .59182E+00   111.858
BIGSUB  83     2000    7 .47258E+02   120.363
BIGSUB  84     2000    7 .79373E+02   134.670
BIGSUB  85     2000    7 .58331E+02   120.363
BIGSUB  86     2000    7 .29852E+02   111.858
BIGSUB  87     2000    7 .25581E+02   111.858
BIGSUB  88     2000    7 .20477E+02   111.858
BIGSUB  89     2000    7 .22789E+02   134.670
BIGSUB  90     2000    7 .53191E+02   120.363
BIGSUB  91     2000    7 .24741E+02    75.940
BIGSUB  92     2000    7 .56077E+02   120.363
BIGSUB  93     2000    7 .66944E+00   120.363
BIGSUB  94     2000    7 .30369E+02   120.363
BIGSUB  95     2000    7 .95265E+01   120.363
BIGSUB  96     2000    7 .44356E+01    75.940
BIGSUB  97     2000    7 .17044E+02    75.940
BIGSUB  98     2000    7 .38880E+02   111.858
BIGSUB  99     2000    7 .10526E+03   134.670
BIGSUB 100     2000    7 .22712E+02   120.363
BIGSUB 101     2000    7 .12029E+02   120.363
BIGSUB 102     2000    7 .20023E+02    92.448
BIGSUB 103     2000    7 .41736E+02    92.448
BIGSUB 104     2000    7 .29717E+02    92.448
BIGSUB 105     2000    7 .20328E+02    75.940
BIGSUB 106     2000    7 .25620E+02    92.448
BIGSUB 107     2000    7 .29696E+02    75.940
BIGSUB 108     2000    7 .12128E+01    75.940
BIGSUB 109     2000    7 .38774E+02    75.940
BIGSUB 110     2000    7 .74938E+02    75.940
BIGSUB 111     2000    7 .29993E+02    75.940
BIGSUB 112     2000    7 .64651E+00    75.940
BIGSUB 113     2000    7 .66414E+02   120.363
BIGSUB 114     2000    7 .38803E+02    75.940
BIGSUB 115     2000    7 .32887E+02    75.940
BIGSUB 116     2000    7 .29806E+02    75.940
BIGSUB 117     2000    7 .81135E+01    75.940
BIGSUB 118     2000    7 .10668E+02    75.940
BIGSUB 119     2000    7 .82472E+02    92.448
BIGSUB 120     2000    7 .83543E+01    75.940
BIGSUB 121     2000    7 .66700E+02    75.940
BIGSUB 122     2000    7 .41534E+02    75.940
BIGSUB 123     2000    7 .24242E+02    75.940
BIGSUB 124     2000    7 .16211E+02    75.940
BIGSUB 125     2000    7 .26587E+02    75.940
BIGSUB 126     2000    7 .65288E+02    75.940
BIGSUB 127     2000    7 .27142E+02    75.940
BIGSUB 128     2000    7 .88441E+02    75.940
BIGSUB 129     2000    7 .57422E+02    75.940
BIGSUB 130     2000    7 .12472E+01    75.940
BIGSUB 131     2000    7 .40099E+02    75.940
BIGSUB 132     2000    7 .73705E+02    75.940
BIGSUB 133     2000    7 .39979E+02    75.940
BIGSUB   1     2000    8 .45854E+02   254.032
BIGSUB   2     2000    8 .86189E+02   251.898
BIGSUB   3     2000    8 .27984E+02   254.032
BIGSUB   4     2000    8 .24648E+02   254.032
BIGSUB   5     2000    8 .27452E+02   201.905
BIGSUB   6     2000    8 .38126E+02   254.032
BIGSUB   7     2000    8 .33075E+00   254.032
BIGSUB   8     2000    8 .26952E+02   254.032
BIGSUB   9     2000    8 .22204E+02   201.905
BIGSUB  10     2000    8 .13462E+02   201.905
BIGSUB  11     2000    8 .22291E+02   254.032
BIGSUB  12     2000    8 .32784E+02   201.905
BIGSUB  13     2000    8 .79636E+01   201.905
BIGSUB  14     2000    8 .22689E+02   201.905
BIGSUB  15     2000    8 .26213E+01   201.905
BIGSUB  16     2000    8 .52920E-01   201.905
BIGSUB  17     2000    8 .33622E+01   201.905
BIGSUB  18     2000    8 .22436E+02   201.905
BIGSUB  19     2000    8 .41798E+02   221.015
BIGSUB  20     2000    8 .45842E+02   221.015
BIGSUB  21     2000    8 .41386E+02   215.080
BIGSUB  22     2000    8 .25137E+02   217.696
BIGSUB  23     2000    8 .79468E+02   201.905
BIGSUB  24     2000    8 .24827E+02   201.905
BIGSUB  25     2000    8 .22920E+02   221.015
BIGSUB  26     2000    8 .44894E+01   221.015
BIGSUB  27     2000    8 .10460E+02   201.905
BIGSUB  28     2000    8 .30092E+02   201.905
BIGSUB  29     2000    8 .10686E+02   221.015
BIGSUB  30     2000    8 .43433E+02   221.015
BIGSUB  31     2000    8 .32131E+02   221.015
BIGSUB  32     2000    8 .32989E+02   201.905
BIGSUB  33     2000    8 .38508E+02   201.905
BIGSUB  34     2000    8 .74614E+02   201.905
BIGSUB  35     2000    8 .10432E+02   221.015
BIGSUB  36     2000    8 .86277E+02   221.015
BIGSUB  37     2000    8 .13750E+02   221.015
BIGSUB  38     2000    8 .66594E+02   221.015
BIGSUB  39     2000    8 .49092E+01   201.905
BIGSUB  40     2000    8 .17745E+02   201.905
BIGSUB  41     2000    8 .19859E+02   201.905
BIGSUB  42     2000    8 .83111E+02   221.015
BIGSUB  43     2000    8 .68870E+02   201.905
BIGSUB  44     2000    8 .43924E+02   201.905
BIGSUB  45     2000    8 .31932E+02   201.905
BIGSUB  46     2000    8 .11068E+02   201.905
BIGSUB  47     2000    8 .75818E+02   221.015
BIGSUB  48     2000    8 .33194E+02   254.032
BIGSUB  49     2000    8 .57024E+02   201.905
BIGSUB  50     2000    8 .12993E+02   201.905
BIGSUB  51     2000    8 .69997E+02   254.032
BIGSUB  52     2000    8 .25723E+02   254.032
BIGSUB  53     2000    8 .28527E+02   254.032
BIGSUB  54     2000    8 .46893E+02   266.539
BIGSUB  55     2000    8 .30643E+02   266.539
BIGSUB  56     2000    8 .94436E+01   201.905
BIGSUB  57     2000    8 .15118E+01   201.905
BIGSUB  58     2000    8 .12948E+01   221.015
BIGSUB  59     2000    8 .33671E+02   254.032
BIGSUB  60     2000    8 .38787E+02   221.015
BIGSUB  61     2000    8 .54657E+02   254.032
BIGSUB  62     2000    8 .76482E+02   221.015
BIGSUB  63     2000    8 .94665E+01   221.015
BIGSUB  64     2000    8 .17570E+02   266.539
BIGSUB  65     2000    8 .39035E+02   266.539
BIGSUB  66     2000    8 .89894E+01   266.539
BIGSUB  67     2000    8 .90405E+00   266.539
BIGSUB  68     2000    8 .17293E+02   266.539
BIGSUB  69     2000    8 .20709E+02   266.539
BIGSUB  70     2000    8 .44265E+02   201.905
BIGSUB  71     2000    8 .12188E+02   221.015
BIGSUB  72     2000    8 .31804E+02   221.015
BIGSUB  73     2000    8 .63116E+01   221.015
BIGSUB  74     2000    8 .12692E+01   266.539
BIGSUB  75     2000    8 .30132E+02   201.905
BIGSUB  76     2000    8 .13600E+01   221.015
BIGSUB  77     2000    8 .25220E+02   221.015
BIGSUB  78     2000    8 .51909E+02   221.015
BIGSUB  79     2000    8 .33231E+02   266.539
BIGSUB  80     2000    8 .28811E+02   201.905
BIGSUB  81     2000    8 .63654E+01   221.015
BIGSUB  82     2000    8 .59182E+00   221.015
BIGSUB  83     2000    8 .47258E+02   213.611
BIGSUB  84     2000    8 .79373E+02   266.539
BIGSUB  85     2000    8 .58331E+02   213.611
BIGSUB  86     2000    8 .29852E+02   221.015
BIGSUB  87     2000    8 .25581E+02   221.015
BIGSUB  88     2000    8 .20477E+02   221.015
BIGSUB  89     2000    8 .22789E+02   266.539
BIGSUB  90     2000    8 .53191E+02   213.611
BIGSUB  91     2000    8 .24741E+02   144.175
BIGSUB  92     2000    8 .56077E+02   213.611
BIGSUB  93     2000    8 .66944E+00   213.611
BIGSUB  94     2000    8 .30369E+02   213.611
BIGSUB  95     2000    8 .95265E+01   213.611
BIGSUB  96     2000    8 .44356E+01   144.175
BIGSUB  97     2000    8 .17044E+02   144.175
BIGSUB  98     2000    8 .38880E+02   221.015
BIGSUB  99     2000    8 .10526E+03   266.539
BIGSUB 100     2000    8 .22712E+02   213.611
BIGSUB 101     2000    8 .12029E+02   213.611
BIGSUB 102     2000    8 .20023E+02   211.310
BIGSUB 103     2000    8 .41736E+02   211.310
BIGSUB 104     2000    8 .29717E+02   211.310
BIGSUB 105     2000    8 .20328E+02   144.175
BIGSUB 106     2000    8 .25620E+02   211.310
BIGSUB 107     2000    8 .29696E+02   144.175
BIGSUB 108     2000    8 .12128E+01   144.175
BIGSUB 109     2000    8 .38774E+02   144.175
BIGSUB 110     2000    8 .74938E+02   144.175
BIGSUB 111     2000    8 .29993E+02   144.175
BIGSUB 112     2000    8 .64651E+00   144.175
BIGSUB 113     2000    8 .66414E+02   213.611
BIGSUB 114     2000    8 .38803E+02   144.175
BIGSUB 115     2000    8 .32887E+02   144.175
BIGSUB 116     2000    8 .29806E+02   144.175
BIGSUB 117     2000    8 .81135E+01   144.175
BIGSUB 118     2000    8 .10668E+02   144.175
BIGSUB 119     2000    8 .82472E+02   211.310
BIGSUB 120     2000    8 .83543E+01   144.175
BIGSUB 121     2000    8 .66700E+02   144.175
BIGSUB 122     2000    8 .41534E+02   144.175
BIGSUB 123     2000    8 .24242E+02   144.175
BIGSUB 124     2000    8 .16211E+02   144.175
BIGSUB 125     2000    8 .26587E+02   144.175
BIGSUB 126     2000    8 .65288E+02   144.175
BIGSUB 127     2000    8 .27142E+02   144.175
BIGSUB 128     2000    8 .88441E+02   144.175
BIGSUB 129     2000    8 .57422E+02   144.175
BIGSUB 130     2000    8 .12472E+01   144.175
BIGSUB 131     2000    8 .40099E+02   144.175
BIGSUB 132     2000    8 .73705E+02   144.175
BIGSUB 133     2000    8 .39979E+02   144.175
BIGSUB   1     2000    9 .45854E+02   233.122
BIGSUB   2     2000    9 .86189E+02   231.163
BIGSUB   3     2000    9 .27984E+02   233.121
BIGSUB   4     2000    9 .24648E+02   233.122
BIGSUB   5     2000    9 .27452E+02   192.400
BIGSUB   6     2000    9 .38126E+02   233.122
BIGSUB   7     2000    9 .33075E+00   233.122
BIGSUB   8     2000    9 .26952E+02   233.121
BIGSUB   9     2000    9 .22204E+02   192.400
BIGSUB  10     2000    9 .13462E+02   192.400
BIGSUB  11     2000    9 .22291E+02   233.121
BIGSUB  12     2000    9 .32784E+02   192.400
BIGSUB  13     2000    9 .79636E+01   192.400
BIGSUB  14     2000    9 .22689E+02   192.400
BIGSUB  15     2000    9 .26213E+01   192.400
BIGSUB  16     2000    9 .52920E-01   192.400
BIGSUB  17     2000    9 .33622E+01   192.400
BIGSUB  18     2000    9 .22436E+02   192.400
BIGSUB  19     2000    9 .41798E+02   204.807
BIGSUB  20     2000    9 .45842E+02   204.807
BIGSUB  21     2000    9 .41386E+02   199.307
BIGSUB  22     2000    9 .25137E+02   201.731
BIGSUB  23     2000    9 .79468E+02   192.400
BIGSUB  24     2000    9 .24827E+02   192.400
BIGSUB  25     2000    9 .22920E+02   204.807
BIGSUB  26     2000    9 .44894E+01   204.807
BIGSUB  27     2000    9 .10460E+02   192.400
BIGSUB  28     2000    9 .30092E+02   192.400
BIGSUB  29     2000    9 .10686E+02   204.807
BIGSUB  30     2000    9 .43433E+02   204.807
BIGSUB  31     2000    9 .32131E+02   204.807
BIGSUB  32     2000    9 .32989E+02   192.400
BIGSUB  33     2000    9 .38508E+02   192.400
BIGSUB  34     2000    9 .74614E+02   192.400
BIGSUB  35     2000    9 .10432E+02   204.807
BIGSUB  36     2000    9 .86277E+02   204.807
BIGSUB  37     2000    9 .13750E+02   204.807
BIGSUB  38     2000    9 .66594E+02   204.807
BIGSUB  39     2000    9 .49092E+01   192.400
BIGSUB  40     2000    9 .17745E+02   192.400
BIGSUB  41     2000    9 .19859E+02   192.400
BIGSUB  42     2000    9 .83111E+02   204.807
BIGSUB  43     2000    9 .68870E+02   192.400
BIGSUB  44     2000    9 .43924E+02   192.400
BIGSUB  45     2000    9 .31932E+02   192.400
BIGSUB  46     2000    9 .11068E+02   192.400
BIGSUB  47     2000    9 .75818E+02   204.807
BIGSUB  48     2000    9 .33194E+02   233.122
BIGSUB  49     2000    9 .57024E+02   192.400
BIGSUB  50     2000    9 .12993E+02   192.400
BIGSUB  51     2000    9 .69997E+02   233.121
BIGSUB  52     2000    9 .25723E+02   233.122
BIGSUB  53     2000    9 .28527E+02   233.122
BIGSUB  54     2000    9 .46893E+02   230.120
BIGSUB  55     2000    9 .30643E+02   230.120
BIGSUB  56     2000    9 .94436E+01   192.400
BIGSUB  57     2000    9 .15118E+01   192.400
BIGSUB  58     2000    9 .12948E+01   204.807
BIGSUB  59     2000    9 .33671E+02   233.122
BIGSUB  60     2000    9 .38787E+02   204.807
BIGSUB  61     2000    9 .54657E+02   233.122
BIGSUB  62     2000    9 .76482E+02   204.807
BIGSUB  63     2000    9 .94665E+01   204.807
BIGSUB  64     2000    9 .17570E+02   230.120
BIGSUB  65     2000    9 .39035E+02   230.120
BIGSUB  66     2000    9 .89894E+01   230.120
BIGSUB  67     2000    9 .90405E+00   230.120
BIGSUB  68     2000    9 .17293E+02   230.120
BIGSUB  69     2000    9 .20709E+02   230.120
BIGSUB  70     2000    9 .44265E+02   192.400
BIGSUB  71     2000    9 .12188E+02   204.807
BIGSUB  72     2000    9 .31804E+02   204.807
BIGSUB  73     2000    9 .63116E+01   204.807
BIGSUB  74     2000    9 .12692E+01   230.120
BIGSUB  75     2000    9 .30132E+02   192.400
BIGSUB  76     2000    9 .13600E+01   204.807
BIGSUB  77     2000    9 .25220E+02   204.807
BIGSUB  78     2000    9 .51909E+02   204.807
BIGSUB  79     2000    9 .33231E+02   230.120
BIGSUB  80     2000    9 .28811E+02   192.400
BIGSUB  81     2000    9 .63654E+01   204.807
BIGSUB  82     2000    9 .59182E+00   204.807
BIGSUB  83     2000    9 .47258E+02   187.298
BIGSUB  84     2000    9 .79373E+02   230.120
BIGSUB  85     2000    9 .58331E+02   187.298
BIGSUB  86     2000    9 .29852E+02   204.807
BIGSUB  87     2000    9 .25581E+02   204.807
BIGSUB  88     2000    9 .20477E+02   204.807
BIGSUB  89     2000    9 .22789E+02   230.120
BIGSUB  90     2000    9 .53191E+02   187.298
BIGSUB  91     2000    9 .24741E+02   180.394
BIGSUB  92     2000    9 .56077E+02   187.298
BIGSUB  93     2000    9 .66944E+00   187.298
BIGSUB  94     2000    9 .30369E+02   187.298
BIGSUB  95     2000    9 .95265E+01   187.298
BIGSUB  96     2000    9 .44356E+01   180.394
BIGSUB  97     2000    9 .17044E+02   180.394
BIGSUB  98     2000    9 .38880E+02   204.807
BIGSUB  99     2000    9 .10526E+03   230.120
BIGSUB 100     2000    9 .22712E+02   187.298
BIGSUB 101     2000    9 .12029E+02   187.298
BIGSUB 102     2000    9 .20023E+02   232.021
BIGSUB 103     2000    9 .41736E+02   232.021
BIGSUB 104     2000    9 .29717E+02   232.021
BIGSUB 105     2000    9 .20328E+02   180.394
BIGSUB 106     2000    9 .25620E+02   232.021
BIGSUB 107     2000    9 .29696E+02   180.394
BIGSUB 108     2000    9 .12128E+01   180.394
BIGSUB 109     2000    9 .38774E+02   180.394
BIGSUB 110     2000    9 .74938E+02   180.394
BIGSUB 111     2000    9 .29993E+02   180.394
BIGSUB 112     2000    9 .64651E+00   180.394
BIGSUB 113     2000    9 .66414E+02   187.298
BIGSUB 114     2000    9 .38803E+02   180.394
BIGSUB 115     2000    9 .32887E+02   180.394
BIGSUB 116     2000    9 .29806E+02   180.394
BIGSUB 117     2000    9 .81135E+01   180.394
BIGSUB 118     2000    9 .10668E+02   180.394
BIGSUB 119     2000    9 .82472E+02   232.021
BIGSUB 120     2000    9 .83543E+01   180.394
BIGSUB 121     2000    9 .66700E+02   180.394
BIGSUB 122     2000    9 .41534E+02   180.394
BIGSUB 123     2000    9 .24242E+02   180.394
BIGSUB 124     2000    9 .16211E+02   180.394
BIGSUB 125     2000    9 .26587E+02   180.394
BIGSUB 126     2000    9 .65288E+02   180.394
BIGSUB 127     2000    9 .27142E+02   180.394
BIGSUB 128     2000    9 .88441E+02   180.394
BIGSUB 129     2000    9 .57422E+02   180.394
BIGSUB 130     2000    9 .12472E+01   180.394
BIGSUB 131     2000    9 .40099E+02   180.394
BIGSUB 132     2000    9 .73705E+02   180.394
BIGSUB 133     2000    9 .39979E+02   180.394
BIGSUB   1     2000   10 .45854E+02   153.880
BIGSUB   2     2000   10 .86189E+02   152.587
BIGSUB   3     2000   10 .27984E+02   153.880
BIGSUB   4     2000   10 .24648E+02   153.880
BIGSUB   5     2000   10 .27452E+02   154.681
BIGSUB   6     2000   10 .38126E+02   153.880
BIGSUB   7     2000   10 .33075E+00   153.880
BIGSUB   8     2000   10 .26952E+02   153.880
BIGSUB   9     2000   10 .22204E+02   154.681
BIGSUB  10     2000   10 .13462E+02   154.681
BIGSUB  11     2000   10 .22291E+02   153.880
BIGSUB  12     2000   10 .32784E+02   154.681
BIGSUB  13     2000   10 .79636E+01   154.681
BIGSUB  14     2000   10 .22689E+02   154.681
BIGSUB  15     2000   10 .26213E+01   154.681
BIGSUB  16     2000   10 .52920E-01   154.681
BIGSUB  17     2000   10 .33622E+01   154.681
BIGSUB  18     2000   10 .22436E+02   154.681
BIGSUB  19     2000   10 .41798E+02   162.285
BIGSUB  20     2000   10 .45842E+02   162.285
BIGSUB  21     2000   10 .41386E+02   157.927
BIGSUB  22     2000   10 .25137E+02   159.847
BIGSUB  23     2000   10 .79468E+02   154.681
BIGSUB  24     2000   10 .24827E+02   154.681
BIGSUB  25     2000   10 .22920E+02   162.285
BIGSUB  26     2000   10 .44894E+01   162.285
BIGSUB  27     2000   10 .10460E+02   154.681
BIGSUB  28     2000   10 .30092E+02   154.681
BIGSUB  29     2000   10 .10686E+02   162.285
BIGSUB  30     2000   10 .43433E+02   162.285
BIGSUB  31     2000   10 .32131E+02   162.285
BIGSUB  32     2000   10 .32989E+02   154.681
BIGSUB  33     2000   10 .38508E+02   154.681
BIGSUB  34     2000   10 .74614E+02   154.681
BIGSUB  35     2000   10 .10432E+02   162.285
BIGSUB  36     2000   10 .86277E+02   162.285
BIGSUB  37     2000   10 .13750E+02   162.285
BIGSUB  38     2000   10 .66594E+02   162.285
BIGSUB  39     2000   10 .49092E+01   154.681
BIGSUB  40     2000   10 .17745E+02   154.681
BIGSUB  41     2000   10 .19859E+02   154.681
BIGSUB  42     2000   10 .83111E+02   162.285
BIGSUB  43     2000   10 .68870E+02   154.681
BIGSUB  44     2000   10 .43924E+02   154.681
BIGSUB  45     2000   10 .31932E+02   154.681
BIGSUB  46     2000   10 .11068E+02   154.681
BIGSUB  47     2000   10 .75818E+02   162.285
BIGSUB  48     2000   10 .33194E+02   153.880
BIGSUB  49     2000   10 .57024E+02   154.681
BIGSUB  50     2000   10 .12993E+02   154.681
BIGSUB  51     2000   10 .69997E+02   153.880
BIGSUB  52     2000   10 .25723E+02   153.880
BIGSUB  53     2000   10 .28527E+02   153.880
BIGSUB  54     2000   10 .46893E+02   145.776
BIGSUB  55     2000   10 .30643E+02   145.776
BIGSUB  56     2000   10 .94436E+01   154.681
BIGSUB  57     2000   10 .15118E+01   154.681
BIGSUB  58     2000   10 .12948E+01   162.285
BIGSUB  59     2000   10 .33671E+02   153.880
BIGSUB  60     2000   10 .38787E+02   162.285
BIGSUB  61     2000   10 .54657E+02   153.880
BIGSUB  62     2000   10 .76482E+02   162.285
BIGSUB  63     2000   10 .94665E+01   162.285
BIGSUB  64     2000   10 .17570E+02   145.776
BIGSUB  65     2000   10 .39035E+02   145.776
BIGSUB  66     2000   10 .89894E+01   145.776
BIGSUB  67     2000   10 .90405E+00   145.776
BIGSUB  68     2000   10 .17293E+02   145.776
BIGSUB  69     2000   10 .20709E+02   145.776
BIGSUB  70     2000   10 .44265E+02   154.681
BIGSUB  71     2000   10 .12188E+02   162.285
BIGSUB  72     2000   10 .31804E+02   162.285
BIGSUB  73     2000   10 .63116E+01   162.285
BIGSUB  74     2000   10 .12692E+01   145.776
BIGSUB  75     2000   10 .30132E+02   154.681
BIGSUB  76     2000   10 .13600E+01   162.285
BIGSUB  77     2000   10 .25220E+02   162.285
BIGSUB  78     2000   10 .51909E+02   162.285
BIGSUB  79     2000   10 .33231E+02   145.776
BIGSUB  80     2000   10 .28811E+02   154.681
BIGSUB  81     2000   10 .63654E+01   162.285
BIGSUB  82     2000   10 .59182E+00   162.285
BIGSUB  83     2000   10 .47258E+02   148.077
BIGSUB  84     2000   10 .79373E+02   145.776
BIGSUB  85     2000   10 .58331E+02   148.077
BIGSUB  86     2000   10 .29852E+02   162.285
BIGSUB  87     2000   10 .25581E+02   162.285
BIGSUB  88     2000   10 .20477E+02   162.285
BIGSUB  89     2000   10 .22789E+02   145.776
BIGSUB  90     2000   10 .53191E+02   148.077
BIGSUB  91     2000   10 .24741E+02   166.687
BIGSUB  92     2000   10 .56077E+02   148.077
BIGSUB  93     2000   10 .66944E+00   148.077
BIGSUB  94     2000   10 .30369E+02   148.077
BIGSUB  95     2000   10 .95265E+01   148.077
BIGSUB  96     2000   10 .44356E+01   166.687
BIGSUB  97     2000   10 .17044E+02   166.687
BIGSUB  98     2000   10 .38880E+02   162.285
BIGSUB  99     2000   10 .10526E+03   145.776
BIGSUB 100     2000   10 .22712E+02   148.077
BIGSUB 101     2000   10 .12029E+02   148.077
BIGSUB 102     2000   10 .20023E+02   174.991
BIGSUB 103     2000   10 .41736E+02   174.991
BIGSUB 104     2000   10 .29717E+02   174.991
BIGSUB 105     2000   10 .20328E+02   166.687
BIGSUB 106     2000   10 .25620E+02   174.991
BIGSUB 107     2000   10 .29696E+02   166.687
BIGSUB 108     2000   10 .12128E+01   166.687
BIGSUB 109     2000   10 .38774E+02   166.687
BIGSUB 110     2000   10 .74938E+02   166.687
BIGSUB 111     2000   10 .29993E+02   166.687
BIGSUB 112     2000   10 .64651E+00   166.687
BIGSUB 113     2000   10 .66414E+02   148.077
BIGSUB 114     2000   10 .38803E+02   166.687
BIGSUB 115     2000   10 .32887E+02   166.687
BIGSUB 116     2000   10 .29806E+02   166.687
BIGSUB 117     2000   10 .81135E+01   166.687
BIGSUB 118     2000   10 .10668E+02   166.687
BIGSUB 119     2000   10 .82472E+02   174.991
BIGSUB 120     2000   10 .83543E+01   166.687
BIGSUB 121     2000   10 .66700E+02   166.687
BIGSUB 122     2000   10 .41534E+02   166.687
BIGSUB 123     2000   10 .24242E+02   166.687
BIGSUB 124     2000   10 .16211E+02   166.687
BIGSUB 125     2000   10 .26587E+02   166.687
BIGSUB 126     2000   10 .65288E+02   166.687
BIGSUB 127     2000   10 .27142E+02   166.687
BIGSUB 128     2000   10 .88441E+02   166.687
BIGSUB 129     2000   10 .57422E+02   166.687
BIGSUB 130     2000   10 .12472E+01   166.687
BIGSUB 131     2000   10 .40099E+02   166.687
BIGSUB 132     2000   10 .73705E+02   166.687
BIGSUB 133     2000   10 .39979E+02   166.687
BIGSUB   1     2000   11 .45854E+02   129.568
BIGSUB   2     2000   11 .86189E+02   128.479
BIGSUB   3     2000   11 .27984E+02   129.568
BIGSUB   4     2000   11 .24648E+02   129.568
BIGSUB   5     2000   11 .27452E+02   102.854
BIGSUB   6     2000   11 .38126E+02   129.568
BIGSUB   7     2000   11 .33075E+00   129.568
BIGSUB   8     2000   11 .26952E+02   129.568
BIGSUB   9     2000   11 .22204E+02   102.854
BIGSUB  10     2000   11 .13462E+02   102.854
BIGSUB  11     2000   11 .22291E+02   129.568
BIGSUB  12     2000   11 .32784E+02   102.854
BIGSUB  13     2000   11 .79636E+01   102.854
BIGSUB  14     2000   11 .22689E+02   102.854
BIGSUB  15     2000   11 .26213E+01   102.854
BIGSUB  16     2000   11 .52920E-01   102.854
BIGSUB  17     2000   11 .33622E+01   102.854
BIGSUB  18     2000   11 .22436E+02   102.854
BIGSUB  19     2000   11 .41798E+02   105.255
BIGSUB  20     2000   11 .45842E+02   105.255
BIGSUB  21     2000   11 .41386E+02   102.429
BIGSUB  22     2000   11 .25137E+02   103.674
BIGSUB  23     2000   11 .79468E+02   102.854
BIGSUB  24     2000   11 .24827E+02   102.854
BIGSUB  25     2000   11 .22920E+02   105.255
BIGSUB  26     2000   11 .44894E+01   105.255
BIGSUB  27     2000   11 .10460E+02   102.854
BIGSUB  28     2000   11 .30092E+02   102.854
BIGSUB  29     2000   11 .10686E+02   105.255
BIGSUB  30     2000   11 .43433E+02   105.255
BIGSUB  31     2000   11 .32131E+02   105.255
BIGSUB  32     2000   11 .32989E+02   102.854
BIGSUB  33     2000   11 .38508E+02   102.854
BIGSUB  34     2000   11 .74614E+02   102.854
BIGSUB  35     2000   11 .10432E+02   105.255
BIGSUB  36     2000   11 .86277E+02   105.255
BIGSUB  37     2000   11 .13750E+02   105.255
BIGSUB  38     2000   11 .66594E+02   105.255
BIGSUB  39     2000   11 .49092E+01   102.854
BIGSUB  40     2000   11 .17745E+02   102.854
BIGSUB  41     2000   11 .19859E+02   102.854
BIGSUB  42     2000   11 .83111E+02   105.255
BIGSUB  43     2000   11 .68870E+02   102.854
BIGSUB  44     2000   11 .43924E+02   102.854
BIGSUB  45     2000   11 .31932E+02   102.854
BIGSUB  46     2000   11 .11068E+02   102.854
BIGSUB  47     2000   11 .75818E+02   105.255
BIGSUB  48     2000   11 .33194E+02   129.568
BIGSUB  49     2000   11 .57024E+02   102.854
BIGSUB  50     2000   11 .12993E+02   102.854
BIGSUB  51     2000   11 .69997E+02   129.568
BIGSUB  52     2000   11 .25723E+02   129.568
BIGSUB  53     2000   11 .28527E+02   129.568
BIGSUB  54     2000   11 .46893E+02   107.956
BIGSUB  55     2000   11 .30643E+02   107.956
BIGSUB  56     2000   11 .94436E+01   102.854
BIGSUB  57     2000   11 .15118E+01   102.854
BIGSUB  58     2000   11 .12948E+01   105.255
BIGSUB  59     2000   11 .33671E+02   129.568
BIGSUB  60     2000   11 .38787E+02   105.255
BIGSUB  61     2000   11 .54657E+02   129.568
BIGSUB  62     2000   11 .76482E+02   105.255
BIGSUB  63     2000   11 .94665E+01   105.255
BIGSUB  64     2000   11 .17570E+02   107.956
BIGSUB  65     2000   11 .39035E+02   107.956
BIGSUB  66     2000   11 .89894E+01   107.956
BIGSUB  67     2000   11 .90405E+00   107.956
BIGSUB  68     2000   11 .17293E+02   107.956
BIGSUB  69     2000   11 .20709E+02   107.956
BIGSUB  70     2000   11 .44265E+02   102.854
BIGSUB  71     2000   11 .12188E+02   105.255
BIGSUB  72     2000   11 .31804E+02   105.255
BIGSUB  73     2000   11 .63116E+01   105.255
BIGSUB  74     2000   11 .12692E+01   107.956
BIGSUB  75     2000   11 .30132E+02   102.854
BIGSUB  76     2000   11 .13600E+01   105.255
BIGSUB  77     2000   11 .25220E+02   105.255
BIGSUB  78     2000   11 .51909E+02   105.255
BIGSUB  79     2000   11 .33231E+02   107.956
BIGSUB  80     2000   11 .28811E+02   102.854
BIGSUB  81     2000   11 .63654E+01   105.255
BIGSUB  82     2000   11 .59182E+00   105.255
BIGSUB  83     2000   11 .47258E+02   105.055
BIGSUB  84     2000   11 .79373E+02   107.956
BIGSUB  85     2000   11 .58331E+02   105.055
BIGSUB  86     2000   11 .29852E+02   105.255
BIGSUB  87     2000   11 .25581E+02   105.255
BIGSUB  88     2000   11 .20477E+02   105.255
BIGSUB  89     2000   11 .22789E+02   107.956
BIGSUB  90     2000   11 .53191E+02   105.055
BIGSUB  91     2000   11 .24741E+02    94.949
BIGSUB  92     2000   11 .56077E+02   105.055
BIGSUB  93     2000   11 .66944E+00   105.055
BIGSUB  94     2000   11 .30369E+02   105.055
BIGSUB  95     2000   11 .95265E+01   105.055
BIGSUB  96     2000   11 .44356E+01    94.950
BIGSUB  97     2000   11 .17044E+02    94.949
BIGSUB  98     2000   11 .38880E+02   105.255
BIGSUB  99     2000   11 .10526E+03   107.956
BIGSUB 100     2000   11 .22712E+02   105.055
BIGSUB 101     2000   11 .12029E+02   105.055
BIGSUB 102     2000   11 .20023E+02   102.553
BIGSUB 103     2000   11 .41736E+02   102.553
BIGSUB 104     2000   11 .29717E+02   102.553
BIGSUB 105     2000   11 .20328E+02    94.949
BIGSUB 106     2000   11 .25620E+02   102.553
BIGSUB 107     2000   11 .29696E+02    94.950
BIGSUB 108     2000   11 .12128E+01    94.950
BIGSUB 109     2000   11 .38774E+02    94.950
BIGSUB 110     2000   11 .74938E+02    94.949
BIGSUB 111     2000   11 .29993E+02    94.949
BIGSUB 112     2000   11 .64651E+00    94.949
BIGSUB 113     2000   11 .66414E+02   105.055
BIGSUB 114     2000   11 .38803E+02    94.950
BIGSUB 115     2000   11 .32887E+02    94.950
BIGSUB 116     2000   11 .29806E+02    94.949
BIGSUB 117     2000   11 .81135E+01    94.950
BIGSUB 118     2000   11 .10668E+02    94.949
BIGSUB 119     2000   11 .82472E+02   102.553
BIGSUB 120     2000   11 .83543E+01    94.950
BIGSUB 121     2000   11 .66700E+02    94.949
BIGSUB 122     2000   11 .41534E+02    94.949
BIGSUB 123     2000   11 .24242E+02    94.949
BIGSUB 124     2000   11 .16211E+02    94.950
BIGSUB 125     2000   11 .26587E+02    94.950
BIGSUB 126     2000   11 .65288E+02    94.949
BIGSUB 127     2000   11 .27142E+02    94.949
BIGSUB 128     2000   11 .88441E+02    94.950
BIGSUB 129     2000   11 .57422E+02    94.950
BIGSUB 130     2000   11 .12472E+01    94.949
BIGSUB 131     2000   11 .40099E+02    94.949
BIGSUB 132     2000   11 .73705E+02    94.949
BIGSUB 133     2000   11 .39979E+02    94.949
BIGSUB   1     2000   12 .45854E+02    49.226
BIGSUB   2     2000   12 .86189E+02    48.812
BIGSUB   3     2000   12 .27984E+02    49.226
BIGSUB   4     2000   12 .24648E+02    49.226
BIGSUB   5     2000   12 .27452E+02    41.221
BIGSUB   6     2000   12 .38126E+02    49.226
BIGSUB   7     2000   12 .33075E+00    49.226
BIGSUB   8     2000   12 .26952E+02    49.226
BIGSUB   9     2000   12 .22204E+02    41.221
BIGSUB  10     2000   12 .13462E+02    41.221
BIGSUB  11     2000   12 .22291E+02    49.226
BIGSUB  12     2000   12 .32784E+02    41.221
BIGSUB  13     2000   12 .79636E+01    41.221
BIGSUB  14     2000   12 .22689E+02    41.221
BIGSUB  15     2000   12 .26213E+01    41.221
BIGSUB  16     2000   12 .52920E-01    41.221
BIGSUB  17     2000   12 .33622E+01    41.221
BIGSUB  18     2000   12 .22436E+02    41.221
BIGSUB  19     2000   12 .41798E+02    40.021
BIGSUB  20     2000   12 .45842E+02    40.021
BIGSUB  21     2000   12 .41386E+02    38.946
BIGSUB  22     2000   12 .25137E+02    39.420
BIGSUB  23     2000   12 .79468E+02    41.221
BIGSUB  24     2000   12 .24827E+02    41.221
BIGSUB  25     2000   12 .22920E+02    40.021
BIGSUB  26     2000   12 .44894E+01    40.021
BIGSUB  27     2000   12 .10460E+02    41.221
BIGSUB  28     2000   12 .30092E+02    41.221
BIGSUB  29     2000   12 .10686E+02    40.021
BIGSUB  30     2000   12 .43433E+02    40.021
BIGSUB  31     2000   12 .32131E+02    40.021
BIGSUB  32     2000   12 .32989E+02    41.221
BIGSUB  33     2000   12 .38508E+02    41.221
BIGSUB  34     2000   12 .74614E+02    41.221
BIGSUB  35     2000   12 .10432E+02    40.021
BIGSUB  36     2000   12 .86277E+02    40.021
BIGSUB  37     2000   12 .13750E+02    40.021
BIGSUB  38     2000   12 .66594E+02    40.021
BIGSUB  39     2000   12 .49092E+01    41.221
BIGSUB  40     2000   12 .17745E+02    41.221
BIGSUB  41     2000   12 .19859E+02    41.221
BIGSUB  42     2000   12 .83111E+02    40.021
BIGSUB  43     2000   12 .68870E+02    41.221
BIGSUB  44     2000   12 .43924E+02    41.222
BIGSUB  45     2000   12 .31932E+02    41.221
BIGSUB  46     2000   12 .11068E+02    41.221
BIGSUB  47     2000   12 .75818E+02    40.021
BIGSUB  48     2000   12 .33194E+02    49.226
BIGSUB  49     2000   12 .57024E+02    41.221
BIGSUB  50     2000   12 .12993E+02    41.221
BIGSUB  51     2000   12 .69997E+02    49.226
BIGSUB  52     2000   12 .25723E+02    49.226
BIGSUB  53     2000   12 .28527E+02    49.226
BIGSUB  54     2000   12 .46893E+02    64.434
BIGSUB  55     2000   12 .30643E+02    64.434
BIGSUB  56     2000   12 .94436E+01    41.221
BIGSUB  57     2000   12 .15118E+01    41.221
BIGSUB  58     2000   12 .12948E+01    40.021
BIGSUB  59     2000   12 .33671E+02    49.226
BIGSUB  60     2000   12 .38787E+02    40.021
BIGSUB  61     2000   12 .54657E+02    49.226
BIGSUB  62     2000   12 .76482E+02    40.021
BIGSUB  63     2000   12 .94665E+01    40.021
BIGSUB  64     2000   12 .17570E+02    64.434
BIGSUB  65     2000   12 .39035E+02    64.434
BIGSUB  66     2000   12 .89894E+01    64.434
BIGSUB  67     2000   12 .90405E+00    64.434
BIGSUB  68     2000   12 .17293E+02    64.434
BIGSUB  69     2000   12 .20709E+02    64.434
BIGSUB  70     2000   12 .44265E+02    41.221
BIGSUB  71     2000   12 .12188E+02    40.021
BIGSUB  72     2000   12 .31804E+02    40.021
BIGSUB  73     2000   12 .63116E+01    40.021
BIGSUB  74     2000   12 .12692E+01    64.434
BIGSUB  75     2000   12 .30132E+02    41.221
BIGSUB  76     2000   12 .13600E+01    40.021
BIGSUB  77     2000   12 .25220E+02    40.021
BIGSUB  78     2000   12 .51909E+02    40.021
BIGSUB  79     2000   12 .33231E+02    64.434
BIGSUB  80     2000   12 .28811E+02    41.221
BIGSUB  81     2000   12 .63654E+01    40.021
BIGSUB  82     2000   12 .59182E+00    40.021
BIGSUB  83     2000   12 .47258E+02    50.326
BIGSUB  84     2000   12 .79373E+02    64.434
BIGSUB  85     2000   12 .58331E+02    50.326
BIGSUB  86     2000   12 .29852E+02    40.021
BIGSUB  87     2000   12 .25581E+02    40.021
BIGSUB  88     2000   12 .20477E+02    40.021
BIGSUB  89     2000   12 .22789E+02    64.434
BIGSUB  90     2000   12 .53191E+02    50.326
BIGSUB  91     2000   12 .24741E+02    42.222
BIGSUB  92     2000   12 .56077E+02    50.326
BIGSUB  93     2000   12 .66944E+00    50.326
BIGSUB  94     2000   12 .30369E+02    50.326
BIGSUB  95     2000   12 .95265E+01    50.326
BIGSUB  96     2000   12 .44356E+01    42.222
BIGSUB  97     2000   12 .17044E+02    42.222
BIGSUB  98     2000   12 .38880E+02    40.021
BIGSUB  99     2000   12 .10526E+03    64.434
BIGSUB 100     2000   12 .22712E+02    50.326
BIGSUB 101     2000   12 .12029E+02    50.326
BIGSUB 102     2000   12 .20023E+02    50.826
BIGSUB 103     2000   12 .41736E+02    50.826
BIGSUB 104     2000   12 .29717E+02    50.826
BIGSUB 105     2000   12 .20328E+02    42.222
BIGSUB 106     2000   12 .25620E+02    50.826
BIGSUB 107     2000   12 .29696E+02    42.222
BIGSUB 108     2000   12 .12128E+01    42.222
BIGSUB 109     2000   12 .38774E+02    42.222
BIGSUB 110     2000   12 .74938E+02    42.222
BIGSUB 111     2000   12 .29993E+02    42.222
BIGSUB 112     2000   12 .64651E+00    42.222
BIGSUB 113     2000   12 .66414E+02    50.326
BIGSUB 114     2000   12 .38803E+02    42.222
BIGSUB 115     2000   12 .32887E+02    42.222
BIGSUB 116     2000   12 .29806E+02    42.222
BIGSUB 117     2000   12 .81135E+01    42.222
BIGSUB 118     2000   12 .10668E+02    42.222
BIGSUB 119     2000   12 .82472E+02    50.826
BIGSUB 120     2000   12 .83543E+01    42.222
BIGSUB 121     2000   12 .66700E+02    42.222
BIGSUB 122     2000   12 .41534E+02    42.222
BIGSUB 123     2000   12 .24242E+02    42.222
BIGSUB 124     2000   12 .16211E+02    42.222
BIGSUB 125     2000   12 .26587E+02    42.222
BIGSUB 126     2000   12 .65288E+02    42.222
BIGSUB 127     2000   12 .27142E+02    42.222
BIGSUB 128     2000   12 .88441E+02    42.222
BIGSUB 129     2000   12 .57422E+02    42.222
BIGSUB 130     2000   12 .12472E+01    42.222
BIGSUB 131     2000   12 .40099E+02    42.222
BIGSUB 132     2000   12 .73705E+02    42.222
BIGSUB 133     2000   12 .39979E+02    42.222
BIGSUB   1        0 2000 .45854E+02  2163.828
BIGSUB   2        0 2000 .86189E+02  2145.649
BIGSUB   3        0 2000 .27984E+02  2163.828
BIGSUB   4        0 2000 .24648E+02  2163.828
BIGSUB   5        0 2000 .27452E+02  1935.308
BIGSUB   6        0 2000 .38126E+02  2163.828
BIGSUB   7        0 2000 .33075E+00  2163.828
BIGSUB   8        0 2000 .26952E+02  2163.827
BIGSUB   9        0 2000 .22204E+02  1935.309
BIGSUB  10        0 2000 .13462E+02  1935.309
BIGSUB  11        0 2000 .22291E+02  2163.828
BIGSUB  12        0 2000 .32784E+02  1935.309
BIGSUB  13        0 2000 .79636E+01  1935.308
BIGSUB  14        0 2000 .22689E+02  1935.308
BIGSUB  15        0 2000 .26213E+01  1935.308
BIGSUB  16        0 2000 .52920E-01  1935.309
BIGSUB  17        0 2000 .33622E+01  1935.309
BIGSUB  18        0 2000 .22436E+02  1935.309
BIGSUB  19        0 2000 .41798E+02  1949.416
BIGSUB  20        0 2000 .45842E+02  1949.416
BIGSUB  21        0 2000 .41386E+02  1897.069
BIGSUB  22        0 2000 .25137E+02  1920.141
BIGSUB  23        0 2000 .79468E+02  1935.309
BIGSUB  24        0 2000 .24827E+02  1935.309
BIGSUB  25        0 2000 .22920E+02  1949.416
BIGSUB  26        0 2000 .44894E+01  1949.416
BIGSUB  27        0 2000 .10460E+02  1935.308
BIGSUB  28        0 2000 .30092E+02  1935.309
BIGSUB  29        0 2000 .10686E+02  1949.416
BIGSUB  30        0 2000 .43433E+02  1949.416
BIGSUB  31        0 2000 .32131E+02  1949.416
BIGSUB  32        0 2000 .32989E+02  1935.308
BIGSUB  33        0 2000 .38508E+02  1935.308
BIGSUB  34        0 2000 .74614E+02  1935.308
BIGSUB  35        0 2000 .10432E+02  1949.416
BIGSUB  36        0 2000 .86277E+02  1949.416
BIGSUB  37        0 2000 .13750E+02  1949.416
BIGSUB  38        0 2000 .66594E+02  1949.416
BIGSUB  39        0 2000 .49092E+01  1935.309
BIGSUB  40        0 2000 .17745E+02  1935.309
BIGSUB  41        0 2000 .19859E+02  1935.309
BIGSUB  42        0 2000 .83111E+02  1949.416
BIGSUB  43        0 2000 .68870E+02  1935.309
BIGSUB  44        0 2000 .43924E+02  1935.309
BIGSUB  45        0 2000 .31932E+02  1935.308
BIGSUB  46        0 2000 .11068E+02  1935.309
BIGSUB  47        0 2000 .75818E+02  1949.416
BIGSUB  48        0 2000 .33194E+02  2163.828
BIGSUB  49        0 2000 .57024E+02  1935.308
BIGSUB  50        0 2000 .12993E+02  1935.308
BIGSUB  51        0 2000 .69997E+02  2163.827
BIGSUB  52        0 2000 .25723E+02  2163.828
BIGSUB  53        0 2000 .28527E+02  2163.828
BIGSUB  54        0 2000 .46893E+02  2107.398
BIGSUB  55        0 2000 .30643E+02  2107.398
BIGSUB  56        0 2000 .94436E+01  1935.308
BIGSUB  57        0 2000 .15118E+01  1935.309
BIGSUB  58        0 2000 .12948E+01  1949.416
BIGSUB  59        0 2000 .33671E+02  2163.828
BIGSUB  60        0 2000 .38787E+02  1949.416
BIGSUB  61        0 2000 .54657E+02  2163.828
BIGSUB  62        0 2000 .76482E+02  1949.416
BIGSUB  63        0 2000 .94665E+01  1949.416
BIGSUB  64        0 2000 .17570E+02  2107.397
BIGSUB  65        0 2000 .39035E+02  2107.398
BIGSUB  66        0 2000 .89894E+01  2107.398
BIGSUB  67        0 2000 .90405E+00  2107.398
BIGSUB  68        0 2000 .17293E+02  2107.398
BIGSUB  69        0 2000 .20709E+02  2107.398
BIGSUB  70        0 2000 .44265E+02  1935.308
BIGSUB  71        0 2000 .12188E+02  1949.416
BIGSUB  72        0 2000 .31804E+02  1949.416
BIGSUB  73        0 2000 .63116E+01  1949.416
BIGSUB  74        0 2000 .12692E+01  2107.398
BIGSUB  75        0 2000 .30132E+02  1935.308
BIGSUB  76        0 2000 .13600E+01  1949.416
BIGSUB  77        0 2000 .25220E+02  1949.416
BIGSUB  78        0 2000 .51909E+02  1949.416
BIGSUB  79        0 2000 .33231E+02  2107.398
BIGSUB  80        0 2000 .28811E+02  1935.309
BIGSUB  81        0 2000 .63654E+01  1949.416
BIGSUB  82        0 2000 .59182E+00  1949.416
BIGSUB  83        0 2000 .47258E+02  1967.626
BIGSUB  84        0 2000 .79373E+02  2107.398
BIGSUB  85        0 2000 .58331E+02  1967.626
BIGSUB  86        0 2000 .29852E+02  1949.416
BIGSUB  87        0 2000 .25581E+02  1949.416
BIGSUB  88        0 2000 .20477E+02  1949.416
BIGSUB  89        0 2000 .22789E+02  2107.398
BIGSUB  90        0 2000 .53191E+02  1967.625
BIGSUB  91        0 2000 .24741E+02  1768.722
BIGSUB  92        0 2000 .56077E+02  1967.625
BIGSUB  93        0 2000 .66944E+00  1967.625
BIGSUB  94        0 2000 .30369E+02  1967.625
BIGSUB  95        0 2000 .95265E+01  1967.626
BIGSUB  96        0 2000 .44356E+01  1768.722
BIGSUB  97        0 2000 .17044E+02  1768.722
BIGSUB  98        0 2000 .38880E+02  1949.416
BIGSUB  99        0 2000 .10526E+03  2107.398
BIGSUB 100        0 2000 .22712E+02  1967.625
BIGSUB 101        0 2000 .12029E+02  1967.625
BIGSUB 102        0 2000 .20023E+02  2005.545
BIGSUB 103        0 2000 .41736E+02  2005.545
BIGSUB 104        0 2000 .29717E+02  2005.546
BIGSUB 105        0 2000 .20328E+02  1768.722
BIGSUB 106        0 2000 .25620E+02  2005.546
BIGSUB 107        0 2000 .29696E+02  1768.722
BIGSUB 108        0 2000 .12128E+01  1768.722
BIGSUB 109        0 2000 .38774E+02  1768.722
BIGSUB 110        0 2000 .74938E+02  1768.722
BIGSUB 111        0 2000 .29993E+02  1768.722
BIGSUB 112        0 2000 .64651E+00  1768.722
BIGSUB 113        0 2000 .66414E+02  1967.625
BIGSUB 114        0 2000 .38803E+02  1768.722
BIGSUB 115        0 2000 .32887E+02  1768.722
BIGSUB 116        0 2000 .29806E+02  1768.722
BIGSUB 117        0 2000 .81135E+01  1768.722
BIGSUB 118        0 2000 .10668E+02  1768.722
BIGSUB 119        0 2000 .82472E+02  2005.545
BIGSUB 120        0 2000 .83543E+01  1768.722
BIGSUB 121        0 2000 .66700E+02  1768.722
BIGSUB 122        0 2000 .41534E+02  1768.722
BIGSUB 123        0 2000 .24242E+02  1768.722
BIGSUB 124        0 2000 .16211E+02  1768.722
BIGSUB 125        0 2000 .26587E+02  1768.722
BIGSUB 126        0 2000 .65288E+02  1768.722
BIGSUB 127        0 2000 .27142E+02  1768.722
BIGSUB 128        0 2000 .88441E+02  1768.722
BIGSUB 129        0 2000 .57422E+02  1768.722
BIGSUB 130        0 2000 .12472E+01  1768.722
BIGSUB 131        0 2000 .40099E+02  1768.722
BIGSUB 132        0 2000 .73705E+02  1768.722
BIGSUB 133        0 2000 .39979E+02  1768.722
[...]
BIGSUB  99        0 2009 .10526E+03    55.329
BIGSUB 100        0 2009 .22712E+02  1429.245
BIGSUB 101        0 2009 .12029E+02  1429.245
BIGSUB 102        0 2009 .20023E+02  1280.367
BIGSUB 103        0 2009 .41736E+02  1280.367
BIGSUB 104        0 2009 .29717E+02  1280.368
BIGSUB 105        0 2009 .20328E+02  1429.245
BIGSUB 106        0 2009 .25620E+02  1280.368
BIGSUB 107        0 2009 .29696E+02  1429.245
BIGSUB 108        0 2009 .12128E+01  1429.245
BIGSUB 109        0 2009 .38774E+02  1429.245
BIGSUB 110        0 2009 .74938E+02  1429.245
BIGSUB 111        0 2009 .29993E+02  1429.245
BIGSUB 112        0 2009 .64651E+00  1429.245
BIGSUB 113        0 2009 .66414E+02  1429.245
BIGSUB 114        0 2009 .38803E+02  1429.245
BIGSUB 115        0 2009 .32887E+02  1429.245
BIGSUB 116        0 2009 .29806E+02  1429.245
BIGSUB 117        0 2009 .81135E+01  1429.245
BIGSUB 118        0 2009 .10668E+02  1429.245
BIGSUB 119        0 2009 .82472E+02  1280.367
BIGSUB 120        0 2009 .83543E+01  1429.245
BIGSUB 121        0 2009 .66700E+02  1429.245
BIGSUB 122        0 2009 .41534E+02  1429.245
BIGSUB 123        0 2009 .24242E+02  1429.245
BIGSUB 124        0 2009 .16211E+02  1429.245
BIGSUB 125        0 2009 .26587E+02  1429.245
BIGSUB 126        0 2009 .65288E+02  1429.245
BIGSUB 127        0 2009 .27142E+02  1429.245
BIGSUB 128        0 2009 .88441E+02  1429.245
BIGSUB 129        0 2009 .57422E+02  1429.245
BIGSUB 130        0 2009 .12472E+01  1429.245
BIGSUB 131        0 2009 .40099E+02  1429.245
BIGSUB 132        0 2009 .73705E+02  1429.245
BIGSUB 133        0 2009 .39979E+02  1429.245
BIGSUB   1     2010    1 .45854E+02    59.731
BIGSUB   2     2010    1 .86189E+02    59.229
BIGSUB   3     2010    1 .27984E+02    59.731
BIGSUB   4     2010    1 .24648E+02    59.731
BIGSUB   5     2010    1 .27452E+02    62.433
BIGSUB   6     2010    1 .38126E+02    59.731
BIGSUB   7     2010    1 .33075E+00    59.731
BIGSUB   8     2010    1 .26952E+02    59.731
BIGSUB   9     2010    1 .22204E+02    62.433
BIGSUB  10     2010    1 .13462E+02    62.433
BIGSUB  11     2010    1 .22291E+02    59.731
BIGSUB  12     2010    1 .32784E+02    62.433
BIGSUB  13     2010    1 .79636E+01    62.433
BIGSUB  14     2010    1 .22689E+02    62.433
BIGSUB  15     2010    1 .26213E+01    62.433
BIGSUB  16     2010    1 .52920E-01    62.433
BIGSUB  17     2010    1 .33622E+01    62.433
BIGSUB  18     2010    1 .22436E+02    62.433
BIGSUB  19     2010    1 .41798E+02    69.636
BIGSUB  20     2010    1 .45842E+02    77.841
BIGSUB  21     2010    1 .41386E+02    75.750
BIGSUB  22     2010    1 .25137E+02    76.672
BIGSUB  23     2010    1 .79468E+02    62.433
BIGSUB  24     2010    1 .24827E+02    62.433
BIGSUB  25     2010    1 .22920E+02    77.841
BIGSUB  26     2010    1 .44894E+01    77.841
BIGSUB  27     2010    1 .10460E+02    62.433
BIGSUB  28     2010    1 .30092E+02    62.433
BIGSUB  29     2010    1 .10686E+02    69.636
BIGSUB  30     2010    1 .43433E+02    77.841
BIGSUB  31     2010    1 .32131E+02    77.841
BIGSUB  32     2010    1 .32989E+02    71.037
BIGSUB  33     2010    1 .38508E+02    71.037
BIGSUB  34     2010    1 .74614E+02    71.037
BIGSUB  35     2010    1 .10432E+02    69.636
BIGSUB  36     2010    1 .86277E+02    69.636
BIGSUB  37     2010    1 .13750E+02    77.841
BIGSUB  38     2010    1 .66594E+02    77.841
BIGSUB  39     2010    1 .49092E+01    66.735
BIGSUB  40     2010    1 .17745E+02    66.735
BIGSUB  41     2010    1 .19859E+02    66.735
BIGSUB  42     2010    1 .83111E+02    69.636
BIGSUB  43     2010    1 .68870E+02    71.037
BIGSUB  44     2010    1 .43924E+02    66.735
BIGSUB  45     2010    1 .31932E+02    66.735
BIGSUB  46     2010    1 .11068E+02    66.735
BIGSUB  47     2010    1 .75818E+02    77.841
BIGSUB  48     2010    1 .33194E+02    78.941
BIGSUB  49     2010    1 .57024E+02    66.735
BIGSUB  50     2010    1 .12993E+02    66.735
BIGSUB  51     2010    1 .69997E+02    78.941
BIGSUB  52     2010    1 .25723E+02    78.941
BIGSUB  53     2010    1 .28527E+02    78.941
BIGSUB  54     2010    1 .46893E+02    42.022
BIGSUB  55     2010    1 .30643E+02    42.022
BIGSUB  56     2010    1 .94436E+01    66.735
BIGSUB  57     2010    1 .15118E+01    66.735
BIGSUB  58     2010    1 .12948E+01    74.339
BIGSUB  59     2010    1 .33671E+02    78.941
BIGSUB  60     2010    1 .38787E+02    74.339
BIGSUB  61     2010    1 .54657E+02    78.941
BIGSUB  62     2010    1 .76482E+02    74.339
BIGSUB  63     2010    1 .94665E+01    74.339
BIGSUB  64     2010    1 .17570E+02    42.022
BIGSUB  65     2010    1 .39035E+02    42.022
BIGSUB  66     2010    1 .89894E+01    42.022
BIGSUB  67     2010    1 .90405E+00    42.022
BIGSUB  68     2010    1 .17293E+02    42.022
BIGSUB  69     2010    1 .20709E+02    42.022
BIGSUB  70     2010    1 .44265E+02    66.735
BIGSUB  71     2010    1 .12188E+02    74.339
BIGSUB  72     2010    1 .31804E+02    74.339
BIGSUB  73     2010    1 .63116E+01    74.339
BIGSUB  74     2010    1 .12692E+01    42.022
BIGSUB  75     2010    1 .30132E+02    66.735
BIGSUB  76     2010    1 .13600E+01    74.339
BIGSUB  77     2010    1 .25220E+02    74.339
BIGSUB  78     2010    1 .51909E+02    74.339
BIGSUB  79     2010    1 .33231E+02    42.022
BIGSUB  80     2010    1 .28811E+02    66.735
BIGSUB  81     2010    1 .63654E+01    74.339
BIGSUB  82     2010    1 .59182E+00    74.339
BIGSUB  83     2010    1 .47258E+02    51.827
BIGSUB  84     2010    1 .79373E+02    42.022
BIGSUB  85     2010    1 .58331E+02    51.827
BIGSUB  86     2010    1 .29852E+02    74.339
BIGSUB  87     2010    1 .25581E+02    74.339
BIGSUB  88     2010    1 .20477E+02    74.339
BIGSUB  89     2010    1 .22789E+02    42.022
BIGSUB  90     2010    1 .53191E+02    51.827
BIGSUB  91     2010    1 .24741E+02     0.000
BIGSUB  92     2010    1 .56077E+02    51.827
BIGSUB  93     2010    1 .66944E+00    51.827
BIGSUB  94     2010    1 .30369E+02    51.827
BIGSUB  95     2010    1 .95265E+01    51.827
BIGSUB  96     2010    1 .44356E+01     0.000
BIGSUB  97     2010    1 .17044E+02     0.000
BIGSUB  98     2010    1 .38880E+02    74.339
BIGSUB  99     2010    1 .10526E+03    42.022
BIGSUB 100     2010    1 .22712E+02    51.827
BIGSUB 101     2010    1 .12029E+02    51.827
BIGSUB 102     2010    1 .20023E+02    60.231
BIGSUB 103     2010    1 .41736E+02    60.231
BIGSUB 104     2010    1 .29717E+02    60.231
BIGSUB 105     2010    1 .20328E+02     0.000
BIGSUB 106     2010    1 .25620E+02    60.231
BIGSUB 107     2010    1 .29696E+02     0.000
BIGSUB 108     2010    1 .12128E+01     0.000
BIGSUB 109     2010    1 .38774E+02     0.000
BIGSUB 110     2010    1 .74938E+02     0.000
BIGSUB 111     2010    1 .29993E+02     0.000
BIGSUB 112     2010    1 .64651E+00     0.000
BIGSUB 113     2010    1 .66414E+02    51.827
BIGSUB 114     2010    1 .38803E+02     0.000
BIGSUB 115     2010    1 .32887E+02     0.000
BIGSUB 116     2010    1 .29806E+02     0.000
BIGSUB 117     2010    1 .81135E+01     0.000
BIGSUB 118     2010    1 .10668E+02     0.000
BIGSUB 119     2010    1 .82472E+02    60.231
BIGSUB 120     2010    1 .83543E+01     0.000
BIGSUB 121     2010    1 .66700E+02     0.000
BIGSUB 122     2010    1 .41534E+02     0.000
BIGSUB 123     2010    1 .24242E+02     0.000
BIGSUB 124     2010    1 .16211E+02     0.000
BIGSUB 125     2010    1 .26587E+02     0.000
BIGSUB 126     2010    1 .65288E+02     0.000
BIGSUB 127     2010    1 .27142E+02     0.000
BIGSUB 128     2010    1 .88441E+02     0.000
BIGSUB 129     2010    1 .57422E+02     0.000
BIGSUB 130     2010    1 .12472E+01     0.000
BIGSUB 131     2010    1 .40099E+02     0.000
BIGSUB 132     2010    1 .73705E+02     0.000
BIGSUB 133     2010    1 .39979E+02     0.000
BIGSUB   1     2010    2 .45854E+02    60.932
BIGSUB   2     2010    2 .86189E+02    60.420
BIGSUB   3     2010    2 .27984E+02    60.932
BIGSUB   4     2010    2 .24648E+02    60.932
BIGSUB   5     2010    2 .27452E+02    48.725
BIGSUB   6     2010    2 .38126E+02    60.932
BIGSUB   7     2010    2 .33075E+00    60.932
BIGSUB   8     2010    2 .26952E+02    60.932
BIGSUB   9     2010    2 .22204E+02    48.725
BIGSUB  10     2010    2 .13462E+02    48.725
BIGSUB  11     2010    2 .22291E+02    60.932
BIGSUB  12     2010    2 .32784E+02    48.725
BIGSUB  13     2010    2 .79636E+01    48.725
BIGSUB  14     2010    2 .22689E+02    48.725
BIGSUB  15     2010    2 .26213E+01    48.725
BIGSUB  16     2010    2 .52920E-01    48.725
BIGSUB  17     2010    2 .33622E+01    48.725
BIGSUB  18     2010    2 .22436E+02    48.725
BIGSUB  19     2010    2 .41798E+02    57.030
BIGSUB  20     2010    2 .45842E+02    55.829
BIGSUB  21     2010    2 .41386E+02    54.330
BIGSUB  22     2010    2 .25137E+02    54.991
BIGSUB  23     2010    2 .79468E+02    48.725
BIGSUB  24     2010    2 .24827E+02    48.725
BIGSUB  25     2010    2 .22920E+02    55.829
BIGSUB  26     2010    2 .44894E+01    55.829
BIGSUB  27     2010    2 .10460E+02    48.725
BIGSUB  28     2010    2 .30092E+02    48.725
BIGSUB  29     2010    2 .10686E+02    57.030
BIGSUB  30     2010    2 .43433E+02    55.829
BIGSUB  31     2010    2 .32131E+02    55.829
BIGSUB  32     2010    2 .32989E+02    58.931
BIGSUB  33     2010    2 .38508E+02    58.931
BIGSUB  34     2010    2 .74614E+02    58.931
BIGSUB  35     2010    2 .10432E+02    57.030
BIGSUB  36     2010    2 .86277E+02    57.030
BIGSUB  37     2010    2 .13750E+02    55.829
BIGSUB  38     2010    2 .66594E+02    55.829
BIGSUB  39     2010    2 .49092E+01    51.827
BIGSUB  40     2010    2 .17745E+02    51.827
BIGSUB  41     2010    2 .19859E+02    51.827
BIGSUB  42     2010    2 .83111E+02    57.030
BIGSUB  43     2010    2 .68870E+02    58.931
BIGSUB  44     2010    2 .43924E+02    51.827
BIGSUB  45     2010    2 .31932E+02    51.827
BIGSUB  46     2010    2 .11068E+02    51.827
BIGSUB  47     2010    2 .75818E+02    55.829
BIGSUB  48     2010    2 .33194E+02    65.834
BIGSUB  49     2010    2 .57024E+02    51.827
BIGSUB  50     2010    2 .12993E+02    51.827
BIGSUB  51     2010    2 .69997E+02    65.834
BIGSUB  52     2010    2 .25723E+02    65.834
BIGSUB  53     2010    2 .28527E+02    65.834
BIGSUB  54     2010    2 .46893E+02    40.421
BIGSUB  55     2010    2 .30643E+02    40.421
BIGSUB  56     2010    2 .94436E+01    51.827
BIGSUB  57     2010    2 .15118E+01    51.827
BIGSUB  58     2010    2 .12948E+01    67.435
BIGSUB  59     2010    2 .33671E+02    65.834
BIGSUB  60     2010    2 .38787E+02    67.435
BIGSUB  61     2010    2 .54657E+02    65.834
BIGSUB  62     2010    2 .76482E+02    67.435
BIGSUB  63     2010    2 .94665E+01    67.435
BIGSUB  64     2010    2 .17570E+02    40.421
BIGSUB  65     2010    2 .39035E+02    40.421
BIGSUB  66     2010    2 .89894E+01    40.421
BIGSUB  67     2010    2 .90405E+00    40.421
BIGSUB  68     2010    2 .17293E+02    40.421
BIGSUB  69     2010    2 .20709E+02    40.421
BIGSUB  70     2010    2 .44265E+02    51.827
BIGSUB  71     2010    2 .12188E+02    67.435
BIGSUB  72     2010    2 .31804E+02    67.435
BIGSUB  73     2010    2 .63116E+01    67.435
BIGSUB  74     2010    2 .12692E+01    40.421
BIGSUB  75     2010    2 .30132E+02    51.827
BIGSUB  76     2010    2 .13600E+01    67.435
BIGSUB  77     2010    2 .25220E+02    67.435
BIGSUB  78     2010    2 .51909E+02    67.435
BIGSUB  79     2010    2 .33231E+02    40.421
BIGSUB  80     2010    2 .28811E+02    51.827
BIGSUB  81     2010    2 .63654E+01    67.435
BIGSUB  82     2010    2 .59182E+00    67.435
BIGSUB  83     2010    2 .47258E+02    57.830
BIGSUB  84     2010    2 .79373E+02    40.421
BIGSUB  85     2010    2 .58331E+02    57.830
BIGSUB  86     2010    2 .29852E+02    67.435
BIGSUB  87     2010    2 .25581E+02    67.435
BIGSUB  88     2010    2 .20477E+02    67.435
BIGSUB  89     2010    2 .22789E+02    40.421
BIGSUB  90     2010    2 .53191E+02    57.830
BIGSUB  91     2010    2 .24741E+02     0.000
BIGSUB  92     2010    2 .56077E+02    57.830
BIGSUB  93     2010    2 .66944E+00    57.830
BIGSUB  94     2010    2 .30369E+02    57.830
BIGSUB  95     2010    2 .95265E+01    57.830
BIGSUB  96     2010    2 .44356E+01     0.000
BIGSUB  97     2010    2 .17044E+02     0.000
BIGSUB  98     2010    2 .38880E+02    67.435
BIGSUB  99     2010    2 .10526E+03    40.421
BIGSUB 100     2010    2 .22712E+02    57.830
BIGSUB 101     2010    2 .12029E+02    57.830
BIGSUB 102     2010    2 .20023E+02    63.133
BIGSUB 103     2010    2 .41736E+02    63.133
BIGSUB 104     2010    2 .29717E+02    63.133
BIGSUB 105     2010    2 .20328E+02     0.000
BIGSUB 106     2010    2 .25620E+02    63.133
BIGSUB 107     2010    2 .29696E+02     0.000
BIGSUB 108     2010    2 .12128E+01     0.000
BIGSUB 109     2010    2 .38774E+02     0.000
BIGSUB 110     2010    2 .74938E+02     0.000
BIGSUB 111     2010    2 .29993E+02     0.000
BIGSUB 112     2010    2 .64651E+00     0.000
BIGSUB 113     2010    2 .66414E+02    57.830
BIGSUB 114     2010    2 .38803E+02     0.000
BIGSUB 115     2010    2 .32887E+02     0.000
BIGSUB 116     2010    2 .29806E+02     0.000
BIGSUB 117     2010    2 .81135E+01     0.000
BIGSUB 118     2010    2 .10668E+02     0.000
BIGSUB 119     2010    2 .82472E+02    63.133
BIGSUB 120     2010    2 .83543E+01     0.000
BIGSUB 121     2010    2 .66700E+02     0.000
BIGSUB 122     2010    2 .41534E+02     0.000
BIGSUB 123     2010    2 .24242E+02     0.000
BIGSUB 124     2010    2 .16211E+02     0.000
BIGSUB 125     2010    2 .26587E+02     0.000
BIGSUB 126     2010    2 .65288E+02     0.000
BIGSUB 127     2010    2 .27142E+02     0.000
BIGSUB 128     2010    2 .88441E+02     0.000
BIGSUB 129     2010    2 .57422E+02     0.000
BIGSUB 130     2010    2 .12472E+01     0.000
BIGSUB 131     2010    2 .40099E+02     0.000
BIGSUB 132     2010    2 .73705E+02     0.000
BIGSUB 133     2010    2 .39979E+02     0.000
BIGSUB   1     2010    3 .45854E+02   206.107
BIGSUB   2     2010    3 .86189E+02   204.376
BIGSUB   3     2010    3 .27984E+02   206.107
BIGSUB   4     2010    3 .24648E+02   206.107
BIGSUB   5     2010    3 .27452E+02   190.099
BIGSUB   6     2010    3 .38126E+02   206.107
BIGSUB   7     2010    3 .33075E+00   206.107
BIGSUB   8     2010    3 .26952E+02   206.107
BIGSUB   9     2010    3 .22204E+02   190.099
BIGSUB  10     2010    3 .13462E+02   190.099
BIGSUB  11     2010    3 .22291E+02   206.107
BIGSUB  12     2010    3 .32784E+02   190.099
BIGSUB  13     2010    3 .79636E+01   190.099
BIGSUB  14     2010    3 .22689E+02   190.099
BIGSUB  15     2010    3 .26213E+01   190.099
BIGSUB  16     2010    3 .52920E-01   190.099
BIGSUB  17     2010    3 .33622E+01   190.099
BIGSUB  18     2010    3 .22436E+02   190.099
BIGSUB  19     2010    3 .41798E+02   202.606
BIGSUB  20     2010    3 .45842E+02   248.129
BIGSUB  21     2010    3 .41386E+02   241.466
BIGSUB  22     2010    3 .25137E+02   244.403
BIGSUB  23     2010    3 .79468E+02   190.099
BIGSUB  24     2010    3 .24827E+02   190.099
BIGSUB  25     2010    3 .22920E+02   248.129
BIGSUB  26     2010    3 .44894E+01   248.129
BIGSUB  27     2010    3 .10460E+02   190.099
BIGSUB  28     2010    3 .30092E+02   190.099
BIGSUB  29     2010    3 .10686E+02   202.606
BIGSUB  30     2010    3 .43433E+02   248.129
BIGSUB  31     2010    3 .32131E+02   248.129
BIGSUB  32     2010    3 .32989E+02   201.605
BIGSUB  33     2010    3 .38508E+02   201.605
BIGSUB  34     2010    3 .74614E+02   201.605
BIGSUB  35     2010    3 .10432E+02   202.606
BIGSUB  36     2010    3 .86277E+02   202.606
BIGSUB  37     2010    3 .13750E+02   248.129
BIGSUB  38     2010    3 .66594E+02   248.129
BIGSUB  39     2010    3 .49092E+01   165.586
BIGSUB  40     2010    3 .17745E+02   165.586
BIGSUB  41     2010    3 .19859E+02   165.586
BIGSUB  42     2010    3 .83111E+02   202.606
BIGSUB  43     2010    3 .68870E+02   201.605
BIGSUB  44     2010    3 .43924E+02   165.586
BIGSUB  45     2010    3 .31932E+02   165.586
BIGSUB  46     2010    3 .11068E+02   165.586
BIGSUB  47     2010    3 .75818E+02   248.129
BIGSUB  48     2010    3 .33194E+02   176.092
BIGSUB  49     2010    3 .57024E+02   165.586
BIGSUB  50     2010    3 .12993E+02   165.586
BIGSUB  51     2010    3 .69997E+02   176.092
BIGSUB  52     2010    3 .25723E+02   176.092
BIGSUB  53     2010    3 .28527E+02   176.092
BIGSUB  54     2010    3 .46893E+02   173.090
BIGSUB  55     2010    3 .30643E+02   173.090
BIGSUB  56     2010    3 .94436E+01   165.586
BIGSUB  57     2010    3 .15118E+01   165.586
BIGSUB  58     2010    3 .12948E+01   175.591
BIGSUB  59     2010    3 .33671E+02   176.092
BIGSUB  60     2010    3 .38787E+02   175.591
BIGSUB  61     2010    3 .54657E+02   176.092
BIGSUB  62     2010    3 .76482E+02   175.591
BIGSUB  63     2010    3 .94665E+01   175.591
BIGSUB  64     2010    3 .17570E+02   173.090
BIGSUB  65     2010    3 .39035E+02   173.090
BIGSUB  66     2010    3 .89894E+01   173.090
BIGSUB  67     2010    3 .90405E+00   173.090
BIGSUB  68     2010    3 .17293E+02   173.090
BIGSUB  69     2010    3 .20709E+02   173.090
BIGSUB  70     2010    3 .44265E+02   165.586
BIGSUB  71     2010    3 .12188E+02   175.592
BIGSUB  72     2010    3 .31804E+02   175.591
BIGSUB  73     2010    3 .63116E+01   175.591
BIGSUB  74     2010    3 .12692E+01   173.090
BIGSUB  75     2010    3 .30132E+02   165.586
BIGSUB  76     2010    3 .13600E+01   175.591
BIGSUB  77     2010    3 .25220E+02   175.591
BIGSUB  78     2010    3 .51909E+02   175.591
BIGSUB  79     2010    3 .33231E+02   173.090
BIGSUB  80     2010    3 .28811E+02   165.586
BIGSUB  81     2010    3 .63654E+01   175.591
BIGSUB  82     2010    3 .59182E+00   175.592
BIGSUB  83     2010    3 .47258E+02   161.584
BIGSUB  84     2010    3 .79373E+02   173.090
BIGSUB  85     2010    3 .58331E+02   161.584
BIGSUB  86     2010    3 .29852E+02   175.592
BIGSUB  87     2010    3 .25581E+02   175.592
BIGSUB  88     2010    3 .20477E+02   175.591
BIGSUB  89     2010    3 .22789E+02   173.090
BIGSUB  90     2010    3 .53191E+02   161.584
BIGSUB  91     2010    3 .24741E+02     0.000
BIGSUB  92     2010    3 .56077E+02   161.584
BIGSUB  93     2010    3 .66944E+00   161.584
BIGSUB  94     2010    3 .30369E+02   161.584
BIGSUB  95     2010    3 .95265E+01   161.584
BIGSUB  96     2010    3 .44356E+01     0.000
BIGSUB  97     2010    3 .17044E+02     0.000
BIGSUB  98     2010    3 .38880E+02   175.592
BIGSUB  99     2010    3 .10526E+03   173.090
BIGSUB 100     2010    3 .22712E+02   161.584
BIGSUB 101     2010    3 .12029E+02   161.584
BIGSUB 102     2010    3 .20023E+02   131.068
BIGSUB 103     2010    3 .41736E+02   131.068
BIGSUB 104     2010    3 .29717E+02   131.068
BIGSUB 105     2010    3 .20328E+02     0.000
BIGSUB 106     2010    3 .25620E+02   131.068
BIGSUB 107     2010    3 .29696E+02     0.000
BIGSUB 108     2010    3 .12128E+01     0.000
BIGSUB 109     2010    3 .38774E+02     0.000
BIGSUB 110     2010    3 .74938E+02     0.000
BIGSUB 111     2010    3 .29993E+02     0.000
BIGSUB 112     2010    3 .64651E+00     0.000
BIGSUB 113     2010    3 .66414E+02   161.584
BIGSUB 114     2010    3 .38803E+02     0.000
BIGSUB 115     2010    3 .32887E+02     0.000
BIGSUB 116     2010    3 .29806E+02     0.000
BIGSUB 117     2010    3 .81135E+01     0.000
BIGSUB 118     2010    3 .10668E+02     0.000
BIGSUB 119     2010    3 .82472E+02   131.068
BIGSUB 120     2010    3 .83543E+01     0.000
BIGSUB 121     2010    3 .66700E+02     0.000
BIGSUB 122     2010    3 .41534E+02     0.000
BIGSUB 123     2010    3 .24242E+02     0.000
BIGSUB 124     2010    3 .16211E+02     0.000
BIGSUB 125     2010    3 .26587E+02     0.000
BIGSUB 126     2010    3 .65288E+02     0.000
BIGSUB 127     2010    3 .27142E+02     0.000
BIGSUB 128     2010    3 .88441E+02     0.000
BIGSUB 129     2010    3 .57422E+02     0.000
BIGSUB 130     2010    3 .12472E+01     0.000
BIGSUB 131     2010    3 .40099E+02     0.000
BIGSUB 132     2010    3 .73705E+02     0.000
BIGSUB 133     2010    3 .39979E+02     0.000
