1
    SWAT Dec 11 2014    VER 2012/Rev 635                                                                 0/ 0/   0      0: 0: 0

    General Input/Output section (file.cio):                                        
    2020/9/9 0:00:00 ARCGIS-SWAT interface AV                                       
                                                                                    


       SUB      GIS  MON    AREAkm2  PRECIPmm SNOMELTmm     PETmm      ETmm      SWmm    PERCmm    SURQmm    GW_Qmm    WYLDmm  SYLDt/ha ORGNkg/ha ORGPkg/haNSURQkg/ha SOLPkg/ha SEDPkg/ha LAT Q(mm)LATNO3kg/hGWNO3kg/haCHOLAmic/LCBODU mg/L DOXQ mg/L TNO3kg/ha   HM_SURQ    HM_LAT   HM_PERC  HM_PLANT     HM_GW LabHM_ERONLabHM_ERO   HM_ATMO   HM_WETH    HM_AGR
BIGSUB   1     2010    1 .45854E+02    59.731    10.000    33.983    25.654   130.017    14.736     1.282     0.511     6.609     1.431     2.396     0.294     0.005     0.000     0.361     4.807     0.256     0.000 0.000E+00 0.000E+00 0.000E+00 0.000E+00 0.000E+00 0.000E+00 0.000E+00 0.000E+00 0.000E+00 0.000E+00 0.000E+00 0.000E+00 0.000E+00 0.000E+00
BIGSUB   2     2010    1 .86189E+02    59.229    10.000    34.002    25.802   147.017    13.018     1.042     0.286     6.677     1.121     1.520     0.186     0.004     0.000     0.249     5.343     0.230     0.000 0.000E+00 0.000E+00 0.000E+00 0.000E+00 0.000E+00 0.000E+00 0.000E+00 0.000E+00 0.000E+00 0.000E+00 0.000E+00 0.000E+00 0.000E+00 0.000E+00
BIGSUB   3     2010    1 .27984E+02    59.731    10.000    33.923    25.549   128.997    14.757     1.212     0.539     7.043     1.193     1.354     0.166     0.005     0.000     0.273     5.282     0.285     0.000 0.000E+00 0.000E+00 0.000E+00 0.000E+00 0.000E+00 0.000E+00 0.000E+00 0.000E+00 0.000E+00 0.000E+00 0.000E+00 0.000E+00 0.000E+00 0.000E+00
BIGSUB   4     2010    1 .24648E+02    59.731    10.000    33.859    25.720   148.294    14.782     2.260     0.490     6.089     1.298     1.573     0.193     0.011     0.001     0.379     3.331     0.176     0.000 0.000E+00 0.000E+00 0.000E+00 0.000E+00 0.000E+00 0.000E+00 0.000E+00 0.000E+00 0.000E+00 0.000E+00 0.000E+00 0.000E+00 0.000E+00 0.000E+00
BIGSUB   5     2010    1 .27452E+02    62.433    11.600    33.901    25.884   136.003    17.005     1.269     0.659     6.390     1.314     1.468     0.180     0.006     0.000     0.295     4.451     0.259     0.000 0.000E+00 0.000E+00 0.000E+00 0.000E+00 0.000E+00 0.000E+00 0.000E+00 0.000E+00 0.000E+00 0.000E+00 0.000E+00 0.000E+00 0.000E+00 0.000E+00
BIGSUB   6     2010    1 .38126E+02    59.731    10.000    33.929    25.527   126.351    14.417     0.797     0.517     7.639     0.798     0.846     0.104     0.003     0.000     0.170     6.316     0.321     0.000 0.000E+00 0.000E+00 0.000E+00 0.000E+00 0.000E+00 0.000E+00 0.000E+00 0.000E+00 0.000E+00 0.000E+00 0.000E+00 0.000E+00 0.000E+00 0.000E+00
BIGSUB   7     2010    1 .33075E+00    59.731    10.000    33.728    26.405   201.488    14.563     2.227     0.167     2.778     0.520     0.792     0.097     0.007     0.001     0.148     0.381     0.016     0.000 0.000E+00 0.000E+00 0.000E+00 0.000E+00 0.000E+00 0.000E+00 0.000E+00 0.000E+00 0.000E+00 0.000E+00 0.000E+00 0.000E+00 0.000E+00 0.000E+00
BIGSUB   8     2010    1 .26952E+02    59.731    10.000    33.800    25.591   141.525    15.949     1.843     0.605     5.920     1.045     1.323     0.162     0.007     0.001     0.265     3.463     0.183     0.000 0.000E+00 0.000E+00 0.000E+00 0.000E+00 0.000E+00 0.000E+00 0.000E+00 0.000E+00 0.000E+00 0.000E+00 0.000E+00 0.000E+00 0.000E+00 0.000E+00
BIGSUB   9     2010    1 .22204E+02    62.433    11.600    33.876    25.853   135.904    16.845     1.433     0.668     7.146     1.469     1.519     0.186     0.007     0.000     0.306     5.034     0.278     0.000 0.000E+00 0.000E+00 0.000E+00 0.000E+00 0.000E+00 0.000E+00 0.000E+00 0.000E+00 0.000E+00 0.000E+00 0.000E+00 0.000E+00 0.000E+00 0.000E+00
BIGSUB  10     2010    1 .13462E+02    62.433    11.600    33.787    25.868   146.665    17.478     2.026     0.659     6.866     0.993     1.187     0.145     0.010     0.001     0.239     4.171     0.198     0.000 0.000E+00 0.000E+00 0.000E+00 0.000E+00 0.000E+00 0.000E+00 0.000E+00 0.000E+00 0.000E+00 0.000E+00 0.000E+00 0.000E+00 0.000E+00 0.000E+00
BIGSUB  11     2010    1 .22291E+02    59.731    10.000    34.271    25.821   135.499    14.112     1.269     0.426     7.344     0.714     0.741     0.091     0.009     0.001     0.232     5.641     0.248     0.000 0.000E+00 0.000E+00 0.000E+00 0.000E+00 0.000E+00 0.000E+00 0.000E+00 0.000E+00 0.000E+00 0.000E+00 0.000E+00 0.000E+00 0.000E+00 0.000E+00
BIGSUB  12     2010    1 .32784E+02    62.433    11.600    33.961    25.911   134.728    16.338     1.171     0.617     7.148     1.268     1.360     0.167     0.006     0.000     0.269     5.350     0.278     0.000 0.000E+00 0.000E+00 0.000E+00 0.000E+00 0.000E+00 0.000E+00 0.000E+00 0.000E+00 0.000E+00 0.000E+00 0.000E+00 0.000E+00 0.000E+00 0.000E+00
BIGSUB  13     2010    1 .79636E+01    62.433    11.600    33.767    25.999   157.115    17.103     2.047     0.562     6.372     0.772     1.005     0.123     0.010     0.001     0.197     3.754     0.175     0.000 0.000E+00 0.000E+00 0.000E+00 0.000E+00 0.000E+00 0.000E+00 0.000E+00 0.000E+00 0.000E+00 0.000E+00 0.000E+00 0.000E+00 0.000E+00 0.000E+00
BIGSUB  14     2010    1 .22689E+02    62.433    17.500    30.224    23.196   151.827    19.319     2.562     0.853     5.940     1.085     1.474     0.181     0.009     0.001     0.295     2.512     0.175     0.000 0.000E+00 0.000E+00 0.000E+00 0.000E+00 0.000E+00 0.000E+00 0.000E+00 0.000E+00 0.000E+00 0.000E+00 0.000E+00 0.000E+00 0.000E+00 0.000E+00
BIGSUB  15     2010    1 .26213E+01    62.433     0.000    32.974    25.213   133.354    17.293     2.905     0.504     8.488     1.120     1.304     0.160     0.027     0.001     0.271     5.069     0.234     0.000 0.000E+00 0.000E+00 0.000E+00 0.000E+00 0.000E+00 0.000E+00 0.000E+00 0.000E+00 0.000E+00 0.000E+00 0.000E+00 0.000E+00 0.000E+00 0.000E+00
BIGSUB  16     2010    1 .52920E-01    62.433     0.000    32.893    26.121   201.415    18.218     2.613     0.265     2.891     0.146     0.326     0.040     0.022     0.001     0.061     0.007     0.000     0.000 0.000E+00 0.000E+00 0.000E+00 0.000E+00 0.000E+00 0.000E+00 0.000E+00 0.000E+00 0.000E+00 0.000E+00 0.000E+00 0.000E+00 0.000E+00 0.000E+00
BIGSUB  17     2010    1 .33622E+01    62.433     0.000    32.952    26.013   194.133    13.869     4.467     0.126     6.546     2.180     2.643     0.324     0.037     0.001     0.497     1.950     0.080     0.000 0.000E+00 0.000E+00 0.000E+00 0.000E+00 0.000E+00 0.000E+00 0.000E+00 0.000E+00 0.000E+00 0.000E+00 0.000E+00 0.000E+00 0.000E+00 0.000E+00
BIGSUB  18     2010    1 .22436E+02    62.433    11.600    33.871    25.812   135.918    17.074     1.387     0.665     6.860     1.131     1.335     0.164     0.007     0.000     0.269     4.798     0.252     0.000 0.000E+00 0.000E+00 0.000E+00 0.000E+00 0.000E+00 0.000E+00 0.000E+00 0.000E+00 0.000E+00 0.000E+00 0.000E+00 0.000E+00 0.000E+00 0.000E+00
BIGSUB  19     2010    1 .41798E+02    69.636     0.000    33.214    26.213   135.232    20.210     3.754     1.408    10.049     5.420     5.675     0.695     0.026     0.001     1.147     4.866     0.332     0.001 0.000E+00 0.000E+00 0.000E+00 0.000E+00 0.000E+00 0.000E+00 0.000E+00 0.000E+00 0.000E+00 0.000E+00 0.000E+00 0.000E+00 0.000E+00 0.000E+00
BIGSUB  20     2010    1 .45842E+02    77.841     0.000    33.592    26.784   130.542    21.310     3.839     1.589    17.844     7.622     6.316     0.774     0.017     0.001     1.345    12.394     0.568     0.001 0.000E+00 0.000E+00 0.000E+00 0.000E+00 0.000E+00 0.000E+00 0.000E+00 0.000E+00 0.000E+00 0.000E+00 0.000E+00 0.000E+00 0.000E+00 0.000E+00
BIGSUB  21     2010    1 .41386E+02    75.750     0.000    32.735    26.518   146.637    23.467     5.662     1.666    14.312     6.787    11.871     1.454     0.023     0.002     1.632     6.960     0.338     0.001 0.000E+00 0.000E+00 0.000E+00 0.000E+00 0.000E+00 0.000E+00 0.000E+00 0.000E+00 0.000E+00 0.000E+00 0.000E+00 0.000E+00 0.000E+00 0.000E+00
BIGSUB  22     2010    1 .25137E+02    76.672     0.000    32.134    26.020   128.111    24.999     5.847     1.963    14.578     8.991    20.701     2.536     0.022     0.002     2.403     6.741     0.393     0.002 0.000E+00 0.000E+00 0.000E+00 0.000E+00 0.000E+00 0.000E+00 0.000E+00 0.000E+00 0.000E+00 0.000E+00 0.000E+00 0.000E+00 0.000E+00 0.000E+00
BIGSUB  23     2010    1 .79468E+02    62.433    17.500    31.055    23.722   149.591    17.653     1.960     0.738     7.428     1.021     1.329     0.163     0.007     0.001     0.261     4.719     0.240     0.000 0.000E+00 0.000E+00 0.000E+00 0.000E+00 0.000E+00 0.000E+00 0.000E+00 0.000E+00 0.000E+00 0.000E+00 0.000E+00 0.000E+00 0.000E+00 0.000E+00
BIGSUB  24     2010    1 .24827E+02    62.433     0.000    32.948    25.620   156.257    19.105     4.418     0.532     5.457     1.681     2.338     0.286     0.035     0.001     0.464     0.498     0.032     0.000 0.000E+00 0.000E+00 0.000E+00 0.000E+00 0.000E+00 0.000E+00 0.000E+00 0.000E+00 0.000E+00 0.000E+00 0.000E+00 0.000E+00 0.000E+00 0.000E+00
BIGSUB  25     2010    1 .22920E+02    77.841     0.000    33.685    27.012   148.912    19.634     5.442     1.268    17.657     7.933     6.969     0.854     0.025     0.001     1.491    10.929     0.466     0.001 0.000E+00 0.000E+00 0.000E+00 0.000E+00 0.000E+00 0.000E+00 0.000E+00 0.000E+00 0.000E+00 0.000E+00 0.000E+00 0.000E+00 0.000E+00 0.000E+00
BIGSUB  26     2010    1 .44894E+01    77.841     0.000    33.210    26.913   146.287    26.192     6.000     1.931    13.687     6.843     6.235     0.764     0.028     0.002     1.240     5.728     0.319     0.002 0.000E+00 0.000E+00 0.000E+00 0.000E+00 0.000E+00 0.000E+00 0.000E+00 0.000E+00 0.000E+00 0.000E+00 0.000E+00 0.000E+00 0.000E+00 0.000E+00
BIGSUB  27     2010    1 .10460E+02    62.433     0.000    35.273    27.292   172.245    18.577     3.457     0.468     4.188     0.875     1.344     0.165     0.028     0.001     0.263     0.256     0.015     0.000 0.000E+00 0.000E+00 0.000E+00 0.000E+00 0.000E+00 0.000E+00 0.000E+00 0.000E+00 0.000E+00 0.000E+00 0.000E+00 0.000E+00 0.000E+00 0.000E+00
BIGSUB  28     2010    1 .30092E+02    62.433     0.000    34.459    26.440   146.062    17.366     2.496     0.427     5.264     1.904     2.297     0.281     0.021     0.001     0.454     2.333     0.141     0.000 0.000E+00 0.000E+00 0.000E+00 0.000E+00 0.000E+00 0.000E+00 0.000E+00 0.000E+00 0.000E+00 0.000E+00 0.000E+00 0.000E+00 0.000E+00 0.000E+00
BIGSUB  29     2010    1 .10686E+02    69.636     0.000    36.299    28.697   181.081    20.751     6.727     1.122     8.582     2.434     3.251     0.398     0.048     0.002     0.628     0.717     0.040     0.001 0.000E+00 0.000E+00 0.000E+00 0.000E+00 0.000E+00 0.000E+00 0.000E+00 0.000E+00 0.000E+00 0.000E+00 0.000E+00 0.000E+00 0.000E+00 0.000E+00
BIGSUB  30     2010    1 .43433E+02    77.841     0.000    33.262    26.931   153.380    24.594     6.631     1.697    13.989     5.539     6.008     0.736     0.029     0.002     1.223     5.637     0.277     0.002 0.000E+00 0.000E+00 0.000E+00 0.000E+00 0.000E+00 0.000E+00 0.000E+00 0.000E+00 0.000E+00 0.000E+00 0.000E+00 0.000E+00 0.000E+00 0.000E+00
BIGSUB  31     2010    1 .32131E+02    77.841     0.000    33.342    26.877   139.849    22.725     5.638     1.651    16.133     8.050     9.366     1.147     0.026     0.002     1.599     8.820     0.476     0.001 0.000E+00 0.000E+00 0.000E+00 0.000E+00 0.000E+00 0.000E+00 0.000E+00 0.000E+00 0.000E+00 0.000E+00 0.000E+00 0.000E+00 0.000E+00 0.000E+00
BIGSUB  32     2010    1 .32989E+02    71.037     0.000    34.450    27.973   159.316    22.080     4.121     1.045     7.947     2.466     2.983     0.365     0.031     0.001     0.590     2.765     0.164     0.001 0.000E+00 0.000E+00 0.000E+00 0.000E+00 0.000E+00 0.000E+00 0.000E+00 0.000E+00 0.000E+00 0.000E+00 0.000E+00 0.000E+00 0.000E+00 0.000E+00
BIGSUB  33     2010    1 .38508E+02    71.037     0.000    34.680    27.863   134.729    20.429     3.232     1.064    10.011     3.041     3.610     0.442     0.025     0.001     0.685     5.698     0.315     0.001 0.000E+00 0.000E+00 0.000E+00 0.000E+00 0.000E+00 0.000E+00 0.000E+00 0.000E+00 0.000E+00 0.000E+00 0.000E+00 0.000E+00 0.000E+00 0.000E+00
BIGSUB  34     2010    1 .74614E+02    71.037     0.000    34.682    27.892   137.524    20.247     3.412     1.024    10.176     3.479     3.916     0.480     0.026     0.001     0.746     5.724     0.295     0.001 0.000E+00 0.000E+00 0.000E+00 0.000E+00 0.000E+00 0.000E+00 0.000E+00 0.000E+00 0.000E+00 0.000E+00 0.000E+00 0.000E+00 0.000E+00 0.000E+00
BIGSUB  35     2010    1 .10432E+02    69.636     0.000    36.361    28.684   177.831    21.165     8.426     1.311     9.936     1.252     1.955     0.241     0.050     0.003     0.529     0.180     0.009     0.001 0.000E+00 0.000E+00 0.000E+00 0.000E+00 0.000E+00 0.000E+00 0.000E+00 0.000E+00 0.000E+00 0.000E+00 0.000E+00 0.000E+00 0.000E+00 0.000E+00
BIGSUB  36     2010    1 .86277E+02    69.636     0.000    34.252    27.003   146.867    21.496     4.900     1.457     9.613     3.786     4.423     0.542     0.033     0.001     0.886     3.235     0.218     0.001 0.000E+00 0.000E+00 0.000E+00 0.000E+00 0.000E+00 0.000E+00 0.000E+00 0.000E+00 0.000E+00 0.000E+00 0.000E+00 0.000E+00 0.000E+00 0.000E+00
BIGSUB  37     2010    1 .13750E+02    77.841     0.000    33.259    26.804   131.958    24.682     7.206     1.925    15.085     7.235    10.084     1.235     0.033     0.002     1.732     5.927     0.368     0.002 0.000E+00 0.000E+00 0.000E+00 0.000E+00 0.000E+00 0.000E+00 0.000E+00 0.000E+00 0.000E+00 0.000E+00 0.000E+00 0.000E+00 0.000E+00 0.000E+00
BIGSUB  38     2010    1 .66594E+02    77.841     0.000    33.388    27.135   149.435    24.186     7.064     1.696    13.595     7.136    13.001     1.593     0.030     0.002     1.816     4.811     0.287     0.001 0.000E+00 0.000E+00 0.000E+00 0.000E+00 0.000E+00 0.000E+00 0.000E+00 0.000E+00 0.000E+00 0.000E+00 0.000E+00 0.000E+00 0.000E+00 0.000E+00
BIGSUB  39     2010    1 .49092E+01    66.735     0.000    34.299    27.673   175.317    18.420     7.411     1.214     8.660     0.592     1.238     0.152     0.048     0.002     0.246     0.017     0.001     0.001 0.000E+00 0.000E+00 0.000E+00 0.000E+00 0.000E+00 0.000E+00 0.000E+00 0.000E+00 0.000E+00 0.000E+00 0.000E+00 0.000E+00 0.000E+00 0.000E+00
BIGSUB  40     2010    1 .17745E+02    66.735     0.000    34.309    27.512   159.711    20.066     7.003     1.546     8.608     0.748     1.491     0.183     0.045     0.002     0.294     0.037     0.002     0.001 0.000E+00 0.000E+00 0.000E+00 0.000E+00 0.000E+00 0.000E+00 0.000E+00 0.000E+00 0.000E+00 0.000E+00 0.000E+00 0.000E+00 0.000E+00 0.000E+00
BIGSUB  41     2010    1 .19859E+02    66.735     0.000    34.383    27.473   154.942    18.238     5.983     1.398     9.295     1.655     2.411     0.295     0.039     0.002     0.477     1.893     0.134     0.001 0.000E+00 0.000E+00 0.000E+00 0.000E+00 0.000E+00 0.000E+00 0.000E+00 0.000E+00 0.000E+00 0.000E+00 0.000E+00 0.000E+00 0.000E+00 0.000E+00
BIGSUB  42     2010    1 .83111E+02    69.636     0.000    34.574    27.200   143.684    20.816     6.393     1.428    10.185     3.098     3.934     0.482     0.041     0.002     0.967     2.343     0.169     0.001 0.000E+00 0.000E+00 0.000E+00 0.000E+00 0.000E+00 0.000E+00 0.000E+00 0.000E+00 0.000E+00 0.000E+00 0.000E+00 0.000E+00 0.000E+00 0.000E+00
BIGSUB  43     2010    1 .68870E+02    71.037     0.000    34.702    27.863   136.377    21.212     2.800     1.148     9.780     2.592     2.890     0.354     0.022     0.001     0.562     5.816     0.329     0.001 0.000E+00 0.000E+00 0.000E+00 0.000E+00 0.000E+00 0.000E+00 0.000E+00 0.000E+00 0.000E+00 0.000E+00 0.000E+00 0.000E+00 0.000E+00 0.000E+00
BIGSUB  44     2010    1 .43924E+02    66.735     0.000    38.742    30.040   149.232    21.458     4.507     2.002     9.019     1.083     1.599     0.196     0.027     0.001     0.321     2.481     0.143     0.001 0.000E+00 0.000E+00 0.000E+00 0.000E+00 0.000E+00 0.000E+00 0.000E+00 0.000E+00 0.000E+00 0.000E+00 0.000E+00 0.000E+00 0.000E+00 0.000E+00
BIGSUB  45     2010    1 .31932E+02    66.735     0.000    35.889    28.321   147.273    20.195     4.958     1.758     8.615     1.711     2.433     0.298     0.031     0.001     0.485     1.874     0.124     0.001 0.000E+00 0.000E+00 0.000E+00 0.000E+00 0.000E+00 0.000E+00 0.000E+00 0.000E+00 0.000E+00 0.000E+00 0.000E+00 0.000E+00 0.000E+00 0.000E+00
BIGSUB  46     2010    1 .11068E+02    66.735     0.000    36.539    28.805   159.849    17.917     4.427     1.403    10.426     1.432     1.786     0.219     0.031     0.001     0.354     4.576     0.250     0.001 0.000E+00 0.000E+00 0.000E+00 0.000E+00 0.000E+00 0.000E+00 0.000E+00 0.000E+00 0.000E+00 0.000E+00 0.000E+00 0.000E+00 0.000E+00 0.000E+00
BIGSUB  47     2010    1 .75818E+02    77.841     0.000    33.231    26.925   142.915    26.989     6.401     2.055    12.551     5.506     6.945     0.851     0.027     0.002     1.286     4.066     0.236     0.002 0.000E+00 0.000E+00 0.000E+00 0.000E+00 0.000E+00 0.000E+00 0.000E+00 0.000E+00 0.000E+00 0.000E+00 0.000E+00 0.000E+00 0.000E+00 0.000E+00
BIGSUB  48     2010    1 .33194E+02    78.941     0.300    33.352    26.970   134.761    28.991     4.814     2.889    12.832     2.867     3.849     0.471     0.023     0.001     0.754     5.089     0.326     0.003 0.000E+00 0.000E+00 0.000E+00 0.000E+00 0.000E+00 0.000E+00 0.000E+00 0.000E+00 0.000E+00 0.000E+00 0.000E+00 0.000E+00 0.000E+00 0.000E+00
BIGSUB  49     2010    1 .57024E+02    66.735     0.000    34.682    27.498   142.509    18.748     3.401     1.626     8.972     2.474     2.984     0.366     0.022     0.001     0.598     3.921     0.263     0.001 0.000E+00 0.000E+00 0.000E+00 0.000E+00 0.000E+00 0.000E+00 0.000E+00 0.000E+00 0.000E+00 0.000E+00 0.000E+00 0.000E+00 0.000E+00 0.000E+00
BIGSUB  50     2010    1 .12993E+02    66.735     0.000    34.386    27.372   149.811    19.386     3.003     1.655     9.437     1.154     1.476     0.181     0.022     0.001     0.291     4.754     0.272     0.001 0.000E+00 0.000E+00 0.000E+00 0.000E+00 0.000E+00 0.000E+00 0.000E+00 0.000E+00 0.000E+00 0.000E+00 0.000E+00 0.000E+00 0.000E+00 0.000E+00
BIGSUB  51     2010    1 .69997E+02    78.941     0.300    33.229    26.977   139.587    27.232     5.252     2.625    13.228     4.400     5.267     0.645     0.026     0.001     1.055     5.315     0.361     0.003 0.000E+00 0.000E+00 0.000E+00 0.000E+00 0.000E+00 0.000E+00 0.000E+00 0.000E+00 0.000E+00 0.000E+00 0.000E+00 0.000E+00 0.000E+00 0.000E+00
BIGSUB  52     2010    1 .25723E+02    78.941     0.300    33.360    26.959   127.417    26.104     3.913     2.610    15.841     2.935     3.867     0.474     0.020     0.001     0.715     9.281     0.491     0.002 0.000E+00 0.000E+00 0.000E+00 0.000E+00 0.000E+00 0.000E+00 0.000E+00 0.000E+00 0.000E+00 0.000E+00 0.000E+00 0.000E+00 0.000E+00 0.000E+00
BIGSUB  53     2010    1 .28527E+02    78.941     0.300    36.860    29.137   137.279    27.299     4.521     2.729    14.148     3.941     4.542     0.556     0.021     0.001     0.919     6.859     0.410     0.003 0.000E+00 0.000E+00 0.000E+00 0.000E+00 0.000E+00 0.000E+00 0.000E+00 0.000E+00 0.000E+00 0.000E+00 0.000E+00 0.000E+00 0.000E+00 0.000E+00
BIGSUB  54     2010    1 .46893E+02    42.022    10.600    47.096    35.097   222.430     0.772     3.683     0.006     3.737     0.172     0.321     0.040     0.026     0.001     0.094     0.047     0.001     0.000 0.000E+00 0.000E+00 0.000E+00 0.000E+00 0.000E+00 0.000E+00 0.000E+00 0.000E+00 0.000E+00 0.000E+00 0.000E+00 0.000E+00 0.000E+00 0.000E+00
BIGSUB  55     2010    1 .30643E+02    42.022    10.600    39.471    29.530   194.906     1.818     5.745     0.066     5.883     0.214     0.405     0.053     0.024     0.003     0.245     0.070     0.002     0.000 0.000E+00 0.000E+00 0.000E+00 0.000E+00 0.000E+00 0.000E+00 0.000E+00 0.000E+00 0.000E+00 0.000E+00 0.000E+00 0.000E+00 0.000E+00 0.000E+00
BIGSUB  56     2010    1 .94436E+01    66.735     0.000    36.921    28.668   127.285    19.773     1.192     1.983    11.431     0.816     0.853     0.104     0.010     0.000     0.173     8.227     0.444     0.001 0.000E+00 0.000E+00 0.000E+00 0.000E+00 0.000E+00 0.000E+00 0.000E+00 0.000E+00 0.000E+00 0.000E+00 0.000E+00 0.000E+00 0.000E+00 0.000E+00
BIGSUB  57     2010    1 .15118E+01    66.735     0.000    38.690    30.331   184.077    15.926     2.884     1.090    10.208     1.211     1.505     0.184     0.020     0.001     0.287     6.217     0.290     0.001 0.000E+00 0.000E+00 0.000E+00 0.000E+00 0.000E+00 0.000E+00 0.000E+00 0.000E+00 0.000E+00 0.000E+00 0.000E+00 0.000E+00 0.000E+00 0.000E+00
BIGSUB  58     2010    1 .12948E+01    74.339     0.000    83.346    58.676  1508.022    23.116     3.521     2.234    13.955     0.212     0.234     0.029     0.001     0.000     0.046     8.168     0.053     0.000 0.000E+00 0.000E+00 0.000E+00 0.000E+00 0.000E+00 0.000E+00 0.000E+00 0.000E+00 0.000E+00 0.000E+00 0.000E+00 0.000E+00 0.000E+00 0.000E+00
BIGSUB  59     2010    1 .33671E+02    78.941     0.300    34.957    28.099   146.310    26.930     5.650     2.553    13.231     4.377     5.277     0.646     0.027     0.002     1.053     4.993     0.335     0.003 0.000E+00 0.000E+00 0.000E+00 0.000E+00 0.000E+00 0.000E+00 0.000E+00 0.000E+00 0.000E+00 0.000E+00 0.000E+00 0.000E+00 0.000E+00 0.000E+00
BIGSUB  60     2010    1 .38787E+02    74.339     0.000    34.459    26.954   147.600    26.053     4.990     2.680    10.890     2.971     3.894     0.477     0.011     0.001     0.774     3.183     0.235     0.003 0.000E+00 0.000E+00 0.000E+00 0.000E+00 0.000E+00 0.000E+00 0.000E+00 0.000E+00 0.000E+00 0.000E+00 0.000E+00 0.000E+00 0.000E+00 0.000E+00
BIGSUB  61     2010    1 .54657E+02    78.941     0.000    40.760    31.609   141.956    26.503     4.798     2.666    14.620     3.472     3.952     0.484     0.022     0.001     0.836     7.119     0.411     0.003 0.000E+00 0.000E+00 0.000E+00 0.000E+00 0.000E+00 0.000E+00 0.000E+00 0.000E+00 0.000E+00 0.000E+00 0.000E+00 0.000E+00 0.000E+00 0.000E+00
BIGSUB  62     2010    1 .76482E+02    74.339     0.000    34.542    27.034   147.893    25.502     4.706     2.589    12.106     3.407     3.964     0.486     0.012     0.001     0.774     4.774     0.288     0.003 0.000E+00 0.000E+00 0.000E+00 0.000E+00 0.000E+00 0.000E+00 0.000E+00 0.000E+00 0.000E+00 0.000E+00 0.000E+00 0.000E+00 0.000E+00 0.000E+00
BIGSUB  63     2010    1 .94665E+01    74.339     0.000    34.423    27.103   162.549    27.004     5.809     2.664     9.767     2.754     3.744     0.459     0.014     0.002     0.737     1.258     0.080     0.003 0.000E+00 0.000E+00 0.000E+00 0.000E+00 0.000E+00 0.000E+00 0.000E+00 0.000E+00 0.000E+00 0.000E+00 0.000E+00 0.000E+00 0.000E+00 0.000E+00
BIGSUB  64     2010    1 .17570E+02    42.022    10.600    34.730    26.684   198.595     0.444     4.727     0.000     4.752     0.256     0.501     0.063     0.025     0.002     0.153     0.024     0.001     0.000 0.000E+00 0.000E+00 0.000E+00 0.000E+00 0.000E+00 0.000E+00 0.000E+00 0.000E+00 0.000E+00 0.000E+00 0.000E+00 0.000E+00 0.000E+00 0.000E+00
BIGSUB  65     2010    1 .39035E+02    42.022    10.600    34.131    26.094   179.750     3.192     1.732     0.176     1.975     0.104     0.217     0.027     0.010     0.001     0.061     0.063     0.003     0.000 0.000E+00 0.000E+00 0.000E+00 0.000E+00 0.000E+00 0.000E+00 0.000E+00 0.000E+00 0.000E+00 0.000E+00 0.000E+00 0.000E+00 0.000E+00 0.000E+00
BIGSUB  66     2010    1 .89894E+01    42.022    10.600    34.105    26.267   196.444     1.195     4.052     0.000     4.083     0.138     0.293     0.038     0.024     0.002     0.141     0.030     0.001     0.000 0.000E+00 0.000E+00 0.000E+00 0.000E+00 0.000E+00 0.000E+00 0.000E+00 0.000E+00 0.000E+00 0.000E+00 0.000E+00 0.000E+00 0.000E+00 0.000E+00
BIGSUB  67     2010    1 .90405E+00    42.022    10.600    34.103    26.329   198.299     1.288     2.074     0.000     2.091     0.076     0.188     0.023     0.015     0.001     0.040     0.016     0.001     0.000 0.000E+00 0.000E+00 0.000E+00 0.000E+00 0.000E+00 0.000E+00 0.000E+00 0.000E+00 0.000E+00 0.000E+00 0.000E+00 0.000E+00 0.000E+00 0.000E+00
BIGSUB  68     2010    1 .17293E+02    42.022    10.600    34.101    26.303   197.535     1.300     2.849     0.000     2.868     0.119     0.254     0.032     0.017     0.001     0.089     0.017     0.001     0.000 0.000E+00 0.000E+00 0.000E+00 0.000E+00 0.000E+00 0.000E+00 0.000E+00 0.000E+00 0.000E+00 0.000E+00 0.000E+00 0.000E+00 0.000E+00 0.000E+00
BIGSUB  69     2010    1 .20709E+02    42.022    10.600    36.856    28.032   200.553     1.514     2.809     0.049     2.940     0.139     0.288     0.036     0.017     0.001     0.083     0.081     0.003     0.000 0.000E+00 0.000E+00 0.000E+00 0.000E+00 0.000E+00 0.000E+00 0.000E+00 0.000E+00 0.000E+00 0.000E+00 0.000E+00 0.000E+00 0.000E+00 0.000E+00
BIGSUB  70     2010    1 .44265E+02    66.735     0.000    35.735    28.301   155.919    19.288     3.868     1.601     8.942     1.567     2.026     0.248     0.026     0.001     0.398     3.450     0.184     0.001 0.000E+00 0.000E+00 0.000E+00 0.000E+00 0.000E+00 0.000E+00 0.000E+00 0.000E+00 0.000E+00 0.000E+00 0.000E+00 0.000E+00 0.000E+00 0.000E+00
BIGSUB  71     2010    1 .12188E+02    74.339     0.000    34.407    27.154   168.417    23.179     7.513     2.127    12.306     3.622     4.556     0.558     0.023     0.002     0.908     2.637     0.168     0.002 0.000E+00 0.000E+00 0.000E+00 0.000E+00 0.000E+00 0.000E+00 0.000E+00 0.000E+00 0.000E+00 0.000E+00 0.000E+00 0.000E+00 0.000E+00 0.000E+00
BIGSUB  72     2010    1 .31804E+02    74.339     0.000    34.808    27.079   141.020    25.224     4.062     2.618    12.905     2.761     3.259     0.399     0.010     0.001     0.649     6.188     0.373     0.003 0.000E+00 0.000E+00 0.000E+00 0.000E+00 0.000E+00 0.000E+00 0.000E+00 0.000E+00 0.000E+00 0.000E+00 0.000E+00 0.000E+00 0.000E+00 0.000E+00
BIGSUB  73     2010    1 .63116E+01    74.339     0.000    34.398    27.345   185.634    20.304    11.261     1.634    14.038     2.578     3.626     0.445     0.041     0.003     0.843     1.120     0.069     0.001 0.000E+00 0.000E+00 0.000E+00 0.000E+00 0.000E+00 0.000E+00 0.000E+00 0.000E+00 0.000E+00 0.000E+00 0.000E+00 0.000E+00 0.000E+00 0.000E+00
BIGSUB  74     2010    1 .12692E+01    42.022    10.600    34.108    26.345   198.675     1.551     1.428     0.000     1.441     0.047     0.118     0.015     0.007     0.000     0.022     0.013     0.000     0.000 0.000E+00 0.000E+00 0.000E+00 0.000E+00 0.000E+00 0.000E+00 0.000E+00 0.000E+00 0.000E+00 0.000E+00 0.000E+00 0.000E+00 0.000E+00 0.000E+00
BIGSUB  75     2010    1 .30132E+02    66.735     0.000    34.466    27.507   154.052    19.676     4.252     1.689     8.212     1.366     1.973     0.242     0.027     0.001     0.406     2.246     0.151     0.001 0.000E+00 0.000E+00 0.000E+00 0.000E+00 0.000E+00 0.000E+00 0.000E+00 0.000E+00 0.000E+00 0.000E+00 0.000E+00 0.000E+00 0.000E+00 0.000E+00
BIGSUB  76     2010    1 .13600E+01    74.339     0.000    34.378    27.485   199.821    16.729    14.234     1.105    16.234     2.831     3.965     0.487     0.059     0.005     1.006     0.880     0.038     0.001 0.000E+00 0.000E+00 0.000E+00 0.000E+00 0.000E+00 0.000E+00 0.000E+00 0.000E+00 0.000E+00 0.000E+00 0.000E+00 0.000E+00 0.000E+00 0.000E+00
BIGSUB  77     2010    1 .25220E+02    74.339     0.000    34.494    27.026   152.336    23.668     5.597     2.338    12.196     4.102     4.974     0.609     0.014     0.002     0.986     4.229     0.282     0.002 0.000E+00 0.000E+00 0.000E+00 0.000E+00 0.000E+00 0.000E+00 0.000E+00 0.000E+00 0.000E+00 0.000E+00 0.000E+00 0.000E+00 0.000E+00 0.000E+00
BIGSUB  78     2010    1 .51909E+02    74.339     0.000    34.577    26.941   139.645    24.702     4.963     2.574    12.060     4.772     5.528     0.677     0.011     0.001     1.109     4.488     0.324     0.003 0.000E+00 0.000E+00 0.000E+00 0.000E+00 0.000E+00 0.000E+00 0.000E+00 0.000E+00 0.000E+00 0.000E+00 0.000E+00 0.000E+00 0.000E+00 0.000E+00
BIGSUB  79     2010    1 .33231E+02    42.022    10.600    36.959    27.701   171.007     4.854     1.865     0.340     2.267     0.062     0.148     0.019     0.011     0.001     0.064     0.056     0.002     0.000 0.000E+00 0.000E+00 0.000E+00 0.000E+00 0.000E+00 0.000E+00 0.000E+00 0.000E+00 0.000E+00 0.000E+00 0.000E+00 0.000E+00 0.000E+00 0.000E+00
BIGSUB  80     2010    1 .28811E+02    66.735    15.600    32.734    26.000   152.324    19.469     2.897     1.927     9.569     1.316     1.710     0.210     0.010     0.001     0.378     4.717     0.273     0.001 0.000E+00 0.000E+00 0.000E+00 0.000E+00 0.000E+00 0.000E+00 0.000E+00 0.000E+00 0.000E+00 0.000E+00 0.000E+00 0.000E+00 0.000E+00 0.000E+00
BIGSUB  81     2010    1 .63654E+01    74.339     0.000    34.444    27.055   157.683    18.669    12.753     1.614    17.018     5.523     6.872     0.843     0.048     0.004     1.813     2.628     0.171     0.001 0.000E+00 0.000E+00 0.000E+00 0.000E+00 0.000E+00 0.000E+00 0.000E+00 0.000E+00 0.000E+00 0.000E+00 0.000E+00 0.000E+00 0.000E+00 0.000E+00
BIGSUB  82     2010    1 .59182E+00    74.339     0.000    34.438    27.029   155.523    25.081     5.056     2.490    11.243     2.446     3.228     0.395     0.011     0.001     0.635     3.663     0.230     0.003 0.000E+00 0.000E+00 0.000E+00 0.000E+00 0.000E+00 0.000E+00 0.000E+00 0.000E+00 0.000E+00 0.000E+00 0.000E+00 0.000E+00 0.000E+00 0.000E+00
BIGSUB  83     2010    1 .47258E+02    51.827     9.000    36.392    28.005   190.760     9.202     3.162     0.391     3.663     0.436     0.789     0.097     0.011     0.001     0.160     0.104     0.004     0.000 0.000E+00 0.000E+00 0.000E+00 0.000E+00 0.000E+00 0.000E+00 0.000E+00 0.000E+00 0.000E+00 0.000E+00 0.000E+00 0.000E+00 0.000E+00 0.000E+00
BIGSUB  84     2010    1 .79373E+02    42.022    10.600    34.855    26.643   187.304     3.016     1.096     0.086     1.233     0.060     0.138     0.017     0.006     0.000     0.026     0.048     0.002     0.000 0.000E+00 0.000E+00 0.000E+00 0.000E+00 0.000E+00 0.000E+00 0.000E+00 0.000E+00 0.000E+00 0.000E+00 0.000E+00 0.000E+00 0.000E+00 0.000E+00
BIGSUB  85     2010    1 .58331E+02    51.827     8.637    33.894    25.928   145.385    10.430     1.761     0.725     4.877     1.401     1.711     0.210     0.004     0.000     0.341     2.380     0.155     0.000 0.000E+00 0.000E+00 0.000E+00 0.000E+00 0.000E+00 0.000E+00 0.000E+00 0.000E+00 0.000E+00 0.000E+00 0.000E+00 0.000E+00 0.000E+00 0.000E+00
BIGSUB  86     2010    1 .29852E+02    74.339     0.000    37.604    29.072   162.105    23.553     5.836     2.297    12.218     4.011     4.798     0.588     0.014     0.002     0.971     4.053     0.248     0.002 0.000E+00 0.000E+00 0.000E+00 0.000E+00 0.000E+00 0.000E+00 0.000E+00 0.000E+00 0.000E+00 0.000E+00 0.000E+00 0.000E+00 0.000E+00 0.000E+00
BIGSUB  87     2010    1 .25581E+02    74.339     0.000    32.726    25.821   153.776    25.968     5.861     2.532    12.315     3.083     3.886     0.476     0.015     0.002     0.777     3.887     0.253     0.003 0.000E+00 0.000E+00 0.000E+00 0.000E+00 0.000E+00 0.000E+00 0.000E+00 0.000E+00 0.000E+00 0.000E+00 0.000E+00 0.000E+00 0.000E+00 0.000E+00
BIGSUB  88     2010    1 .20477E+02    74.339     0.000    34.498    26.854   136.533    25.391     5.664     2.668    12.036     4.061     5.130     0.628     0.013     0.002     1.034     3.667     0.279     0.003 0.000E+00 0.000E+00 0.000E+00 0.000E+00 0.000E+00 0.000E+00 0.000E+00 0.000E+00 0.000E+00 0.000E+00 0.000E+00 0.000E+00 0.000E+00 0.000E+00
BIGSUB  89     2010    1 .22789E+02    42.022    10.600    34.156    26.174   187.716     2.660     0.969     0.078     1.246     0.067     0.132     0.016     0.005     0.000     0.025     0.197     0.008     0.000 0.000E+00 0.000E+00 0.000E+00 0.000E+00 0.000E+00 0.000E+00 0.000E+00 0.000E+00 0.000E+00 0.000E+00 0.000E+00 0.000E+00 0.000E+00 0.000E+00
BIGSUB  90     2010    1 .53191E+02    51.827     8.638    34.851    26.732   159.418    11.486     1.668     0.717     3.522     0.799     1.083     0.133     0.004     0.000     0.209     1.126     0.074     0.000 0.000E+00 0.000E+00 0.000E+00 0.000E+00 0.000E+00 0.000E+00 0.000E+00 0.000E+00 0.000E+00 0.000E+00 0.000E+00 0.000E+00 0.000E+00 0.000E+00
BIGSUB  91     2010    1 .24741E+02     0.000     0.000    34.501    13.652   119.236     0.000     0.000     0.000     0.000     0.000     0.000     0.000     0.000     0.000     0.000     0.000     0.000     0.000 0.000E+00 0.000E+00 0.000E+00 0.000E+00 0.000E+00 0.000E+00 0.000E+00 0.000E+00 0.000E+00 0.000E+00 0.000E+00 0.000E+00 0.000E+00 0.000E+00
BIGSUB  92     2010    1 .56077E+02    51.827     8.638    33.779    26.265   174.273    11.310     2.115     0.619     2.947     0.413     0.709     0.087     0.007     0.001     0.140     0.203     0.011     0.000 0.000E+00 0.000E+00 0.000E+00 0.000E+00 0.000E+00 0.000E+00 0.000E+00 0.000E+00 0.000E+00 0.000E+00 0.000E+00 0.000E+00 0.000E+00 0.000E+00
BIGSUB  93     2010    1 .66944E+00    51.827     2.000    35.284    27.602   199.351     8.853     1.977     0.343     2.336     0.097     0.219     0.027     0.006     0.001     0.041     0.009     0.000     0.000 0.000E+00 0.000E+00 0.000E+00 0.000E+00 0.000E+00 0.000E+00 0.000E+00 0.000E+00 0.000E+00 0.000E+00 0.000E+00 0.000E+00 0.000E+00 0.000E+00
BIGSUB  94     2010    1 .30369E+02    51.827     2.000    35.328    27.143   164.541    10.398     2.197     0.595     3.355     0.497     0.798     0.098     0.006     0.001     0.157     0.554     0.034     0.000 0.000E+00 0.000E+00 0.000E+00 0.000E+00 0.000E+00 0.000E+00 0.000E+00 0.000E+00 0.000E+00 0.000E+00 0.000E+00 0.000E+00 0.000E+00 0.000E+00
BIGSUB  95     2010    1 .95265E+01    51.827     9.000    34.046    26.365   178.707    11.799     1.593     0.640     2.384     0.124     0.279     0.034     0.004     0.000     0.047     0.140     0.006     0.000 0.000E+00 0.000E+00 0.000E+00 0.000E+00 0.000E+00 0.000E+00 0.000E+00 0.000E+00 0.000E+00 0.000E+00 0.000E+00 0.000E+00 0.000E+00 0.000E+00
BIGSUB  96     2010    1 .44356E+01     0.000     0.000    35.327    14.352   146.282     0.000     0.000     0.000     0.000     0.000     0.000     0.000     0.000     0.000     0.000     0.000     0.000     0.000 0.000E+00 0.000E+00 0.000E+00 0.000E+00 0.000E+00 0.000E+00 0.000E+00 0.000E+00 0.000E+00 0.000E+00 0.000E+00 0.000E+00 0.000E+00 0.000E+00
BIGSUB  97     2010    1 .17044E+02     0.000     0.000    39.483    17.894   143.725     0.000     0.000     0.000     0.000     0.000     0.000     0.000     0.000     0.000     0.000     0.000     0.000     0.000 0.000E+00 0.000E+00 0.000E+00 0.000E+00 0.000E+00 0.000E+00 0.000E+00 0.000E+00 0.000E+00 0.000E+00 0.000E+00 0.000E+00 0.000E+00 0.000E+00
BIGSUB  98     2010    1 .38880E+02    74.339     0.000    32.456    25.569   145.173    26.882     6.164     2.715    11.770     3.460     4.506     0.552     0.015     0.002     0.907     2.853     0.211     0.003 0.000E+00 0.000E+00 0.000E+00 0.000E+00 0.000E+00 0.000E+00 0.000E+00 0.000E+00 0.000E+00 0.000E+00 0.000E+00 0.000E+00 0.000E+00 0.000E+00
BIGSUB  99     2010    1 .10526E+03    42.022    10.600    34.638    26.261   169.942     2.995     3.410     0.240     3.788     0.285     0.500     0.063     0.016     0.001     0.178     0.134     0.007     0.000 0.000E+00 0.000E+00 0.000E+00 0.000E+00 0.000E+00 0.000E+00 0.000E+00 0.000E+00 0.000E+00 0.000E+00 0.000E+00 0.000E+00 0.000E+00 0.000E+00
BIGSUB 100     2010    1 .22712E+02    51.827     9.000    34.835    26.796   171.725    11.861     1.435     0.672     2.270     0.270     0.487     0.060     0.003     0.000     0.088     0.152     0.007     0.000 0.000E+00 0.000E+00 0.000E+00 0.000E+00 0.000E+00 0.000E+00 0.000E+00 0.000E+00 0.000E+00 0.000E+00 0.000E+00 0.000E+00 0.000E+00 0.000E+00
BIGSUB 101     2010    1 .12029E+02    51.827     9.000    39.106    29.531   183.525    12.148     2.143     0.792     3.108     0.176     0.369     0.045     0.005     0.001     0.069     0.161     0.007     0.000 0.000E+00 0.000E+00 0.000E+00 0.000E+00 0.000E+00 0.000E+00 0.000E+00 0.000E+00 0.000E+00 0.000E+00 0.000E+00 0.000E+00 0.000E+00 0.000E+00
BIGSUB 102     2010    1 .20023E+02    60.231     8.400    36.884    27.492   178.847    15.167     7.214     1.409     9.801     2.583     3.743     0.459     0.011     0.002     0.674     1.157     0.051     0.001 0.000E+00 0.000E+00 0.000E+00 0.000E+00 0.000E+00 0.000E+00 0.000E+00 0.000E+00 0.000E+00 0.000E+00 0.000E+00 0.000E+00 0.000E+00 0.000E+00
BIGSUB 103     2010    1 .41736E+02    60.231     8.400    36.563    27.253   175.375    14.881     8.933     1.411    10.736     2.591     3.841     0.471     0.016     0.003     0.769     0.371     0.020     0.001 0.000E+00 0.000E+00 0.000E+00 0.000E+00 0.000E+00 0.000E+00 0.000E+00 0.000E+00 0.000E+00 0.000E+00 0.000E+00 0.000E+00 0.000E+00 0.000E+00
BIGSUB 104     2010    1 .29717E+02    60.231     8.400    36.089    26.611   151.026    17.735     7.641     1.962     9.974     2.254     3.443     0.422     0.010     0.002     0.687     0.343     0.025     0.002 0.000E+00 0.000E+00 0.000E+00 0.000E+00 0.000E+00 0.000E+00 0.000E+00 0.000E+00 0.000E+00 0.000E+00 0.000E+00 0.000E+00 0.000E+00 0.000E+00
BIGSUB 105     2010    1 .20328E+02     0.000     0.000    37.004    15.127   131.000     0.000     0.000     0.000     0.000     0.000     0.000     0.000     0.000     0.000     0.000     0.000     0.000     0.000 0.000E+00 0.000E+00 0.000E+00 0.000E+00 0.000E+00 0.000E+00 0.000E+00 0.000E+00 0.000E+00 0.000E+00 0.000E+00 0.000E+00 0.000E+00 0.000E+00
BIGSUB 106     2010    1 .25620E+02    60.231     8.400    38.327    28.289   171.464    16.528     7.831     1.699     9.916     2.395     3.530     0.432     0.010     0.002     0.699     0.362     0.024     0.001 0.000E+00 0.000E+00 0.000E+00 0.000E+00 0.000E+00 0.000E+00 0.000E+00 0.000E+00 0.000E+00 0.000E+00 0.000E+00 0.000E+00 0.000E+00 0.000E+00
BIGSUB 107     2010    1 .29696E+02     0.000     0.000    36.482    15.171   137.167     0.000     0.000     0.000     0.000     0.000     0.000     0.000     0.000     0.000     0.000     0.000     0.000     0.000 0.000E+00 0.000E+00 0.000E+00 0.000E+00 0.000E+00 0.000E+00 0.000E+00 0.000E+00 0.000E+00 0.000E+00 0.000E+00 0.000E+00 0.000E+00 0.000E+00
BIGSUB 108     2010    1 .12128E+01     0.000     0.000    42.175    20.183   145.462     0.000     0.000     0.000     0.000     0.000     0.000     0.000     0.000     0.000     0.000     0.000     0.000     0.000 0.000E+00 0.000E+00 0.000E+00 0.000E+00 0.000E+00 0.000E+00 0.000E+00 0.000E+00 0.000E+00 0.000E+00 0.000E+00 0.000E+00 0.000E+00 0.000E+00
BIGSUB 109     2010    1 .38774E+02     0.000     0.000    36.071    14.607   126.657     0.000     0.000     0.000     0.000     0.000     0.000     0.000     0.000     0.000     0.000     0.000     0.000     0.000 0.000E+00 0.000E+00 0.000E+00 0.000E+00 0.000E+00 0.000E+00 0.000E+00 0.000E+00 0.000E+00 0.000E+00 0.000E+00 0.000E+00 0.000E+00 0.000E+00
BIGSUB 110     2010    1 .74938E+02     0.000     0.000    33.804    14.139   117.679     0.000     0.000     0.000     0.000     0.000     0.000     0.000     0.000     0.000     0.000     0.000     0.000     0.000 0.000E+00 0.000E+00 0.000E+00 0.000E+00 0.000E+00 0.000E+00 0.000E+00 0.000E+00 0.000E+00 0.000E+00 0.000E+00 0.000E+00 0.000E+00 0.000E+00
BIGSUB 111     2010    1 .29993E+02     0.000     0.000    37.110    15.894   147.672     0.000     0.000     0.000     0.000     0.000     0.000     0.000     0.000     0.000     0.000     0.000     0.000     0.000 0.000E+00 0.000E+00 0.000E+00 0.000E+00 0.000E+00 0.000E+00 0.000E+00 0.000E+00 0.000E+00 0.000E+00 0.000E+00 0.000E+00 0.000E+00 0.000E+00
BIGSUB 112     2010    1 .64651E+00     0.000     0.000    35.327    14.226   139.014     0.000     0.000     0.000     0.000     0.000     0.000     0.000     0.000     0.000     0.000     0.000     0.000     0.000 0.000E+00 0.000E+00 0.000E+00 0.000E+00 0.000E+00 0.000E+00 0.000E+00 0.000E+00 0.000E+00 0.000E+00 0.000E+00 0.000E+00 0.000E+00 0.000E+00
BIGSUB 113     2010    1 .66414E+02    51.827     2.000    35.407    26.950   147.172    10.477     1.738     0.588     4.036     0.596     0.889     0.109     0.004     0.000     0.178     1.700     0.112     0.000 0.000E+00 0.000E+00 0.000E+00 0.000E+00 0.000E+00 0.000E+00 0.000E+00 0.000E+00 0.000E+00 0.000E+00 0.000E+00 0.000E+00 0.000E+00 0.000E+00
BIGSUB 114     2010    1 .38803E+02     0.000     0.000    37.422    16.025   141.955     0.000     0.000     0.000     0.000     0.000     0.000     0.000     0.000     0.000     0.000     0.000     0.000     0.000 0.000E+00 0.000E+00 0.000E+00 0.000E+00 0.000E+00 0.000E+00 0.000E+00 0.000E+00 0.000E+00 0.000E+00 0.000E+00 0.000E+00 0.000E+00 0.000E+00
BIGSUB 115     2010    1 .32887E+02     0.000     0.000    35.826    14.316   124.572     0.000     0.000     0.000     0.000     0.000     0.000     0.000     0.000     0.000     0.000     0.000     0.000     0.000 0.000E+00 0.000E+00 0.000E+00 0.000E+00 0.000E+00 0.000E+00 0.000E+00 0.000E+00 0.000E+00 0.000E+00 0.000E+00 0.000E+00 0.000E+00 0.000E+00
BIGSUB 116     2010    1 .29806E+02     0.000     0.000    35.522    14.025   124.291     0.000     0.000     0.000     0.000     0.000     0.000     0.000     0.000     0.000     0.000     0.000     0.000     0.000 0.000E+00 0.000E+00 0.000E+00 0.000E+00 0.000E+00 0.000E+00 0.000E+00 0.000E+00 0.000E+00 0.000E+00 0.000E+00 0.000E+00 0.000E+00 0.000E+00
BIGSUB 117     2010    1 .81135E+01     0.000     0.000    35.341    14.379   147.632     0.000     0.000     0.000     0.000     0.000     0.000     0.000     0.000     0.000     0.000     0.000     0.000     0.000 0.000E+00 0.000E+00 0.000E+00 0.000E+00 0.000E+00 0.000E+00 0.000E+00 0.000E+00 0.000E+00 0.000E+00 0.000E+00 0.000E+00 0.000E+00 0.000E+00
BIGSUB 118     2010    1 .10668E+02     0.000     0.000    39.864    18.492   164.287     0.000     0.000     0.000     0.000     0.000     0.000     0.000     0.000     0.000     0.000     0.000     0.000     0.000 0.000E+00 0.000E+00 0.000E+00 0.000E+00 0.000E+00 0.000E+00 0.000E+00 0.000E+00 0.000E+00 0.000E+00 0.000E+00 0.000E+00 0.000E+00 0.000E+00
BIGSUB 119     2010    1 .82472E+02    60.231     8.400    35.985    26.735   163.568    15.853     8.282     1.591    10.459     3.044     4.176     0.512     0.013     0.002     0.842     0.562     0.031     0.001 0.000E+00 0.000E+00 0.000E+00 0.000E+00 0.000E+00 0.000E+00 0.000E+00 0.000E+00 0.000E+00 0.000E+00 0.000E+00 0.000E+00 0.000E+00 0.000E+00
BIGSUB 120     2010    1 .83543E+01     0.000     0.000    35.354    14.434   150.575     0.000     0.000     0.000     0.000     0.000     0.000     0.000     0.000     0.000     0.000     0.000     0.000     0.000 0.000E+00 0.000E+00 0.000E+00 0.000E+00 0.000E+00 0.000E+00 0.000E+00 0.000E+00 0.000E+00 0.000E+00 0.000E+00 0.000E+00 0.000E+00 0.000E+00
BIGSUB 121     2010    1 .66700E+02     0.000     0.000    35.589    14.015   120.436     0.000     0.000     0.000     0.000     0.000     0.000     0.000     0.000     0.000     0.000     0.000     0.000     0.000 0.000E+00 0.000E+00 0.000E+00 0.000E+00 0.000E+00 0.000E+00 0.000E+00 0.000E+00 0.000E+00 0.000E+00 0.000E+00 0.000E+00 0.000E+00 0.000E+00
BIGSUB 122     2010    1 .41534E+02     0.000     0.000    37.599    16.250   146.411     0.000     0.000     0.000     0.000     0.000     0.000     0.000     0.000     0.000     0.000     0.000     0.000     0.000 0.000E+00 0.000E+00 0.000E+00 0.000E+00 0.000E+00 0.000E+00 0.000E+00 0.000E+00 0.000E+00 0.000E+00 0.000E+00 0.000E+00 0.000E+00 0.000E+00
BIGSUB 123     2010    1 .24242E+02     0.000     0.000    35.430    14.018   125.356     0.000     0.000     0.000     0.000     0.000     0.000     0.000     0.000     0.000     0.000     0.000     0.000     0.000 0.000E+00 0.000E+00 0.000E+00 0.000E+00 0.000E+00 0.000E+00 0.000E+00 0.000E+00 0.000E+00 0.000E+00 0.000E+00 0.000E+00 0.000E+00 0.000E+00
BIGSUB 124     2010    1 .16211E+02     0.000     0.000    36.194    14.917   138.242     0.000     0.000     0.000     0.000     0.000     0.000     0.000     0.000     0.000     0.000     0.000     0.000     0.000 0.000E+00 0.000E+00 0.000E+00 0.000E+00 0.000E+00 0.000E+00 0.000E+00 0.000E+00 0.000E+00 0.000E+00 0.000E+00 0.000E+00 0.000E+00 0.000E+00
BIGSUB 125     2010    1 .26587E+02     0.000     0.000    35.424    14.044   126.943     0.000     0.000     0.000     0.000     0.000     0.000     0.000     0.000     0.000     0.000     0.000     0.000     0.000 0.000E+00 0.000E+00 0.000E+00 0.000E+00 0.000E+00 0.000E+00 0.000E+00 0.000E+00 0.000E+00 0.000E+00 0.000E+00 0.000E+00 0.000E+00 0.000E+00
BIGSUB 126     2010    1 .65288E+02     0.000     0.000    35.412    14.059   127.999     0.000     0.000     0.000     0.000     0.000     0.000     0.000     0.000     0.000     0.000     0.000     0.000     0.000 0.000E+00 0.000E+00 0.000E+00 0.000E+00 0.000E+00 0.000E+00 0.000E+00 0.000E+00 0.000E+00 0.000E+00 0.000E+00 0.000E+00 0.000E+00 0.000E+00
BIGSUB 127     2010    1 .27142E+02     0.000     0.000    35.416    14.075   128.880     0.000     0.000     0.000     0.000     0.000     0.000     0.000     0.000     0.000     0.000     0.000     0.000     0.000 0.000E+00 0.000E+00 0.000E+00 0.000E+00 0.000E+00 0.000E+00 0.000E+00 0.000E+00 0.000E+00 0.000E+00 0.000E+00 0.000E+00 0.000E+00 0.000E+00
BIGSUB 128     2010    1 .88441E+02     0.000     0.000    35.772    13.675   105.316     0.000     0.000     0.000     0.000     0.000     0.000     0.000     0.000     0.000     0.000     0.000     0.000     0.000 0.000E+00 0.000E+00 0.000E+00 0.000E+00 0.000E+00 0.000E+00 0.000E+00 0.000E+00 0.000E+00 0.000E+00 0.000E+00 0.000E+00 0.000E+00 0.000E+00
BIGSUB 129     2010    1 .57422E+02     0.000     0.000    35.515    13.634   114.730     0.000     0.000     0.000     0.000     0.000     0.000     0.000     0.000     0.000     0.000     0.000     0.000     0.000 0.000E+00 0.000E+00 0.000E+00 0.000E+00 0.000E+00 0.000E+00 0.000E+00 0.000E+00 0.000E+00 0.000E+00 0.000E+00 0.000E+00 0.000E+00 0.000E+00
BIGSUB 130     2010    1 .12472E+01     0.000     0.000    35.503    13.361   105.072     0.000     0.000     0.000     0.000     0.000     0.000     0.000     0.000     0.000     0.000     0.000     0.000     0.000 0.000E+00 0.000E+00 0.000E+00 0.000E+00 0.000E+00 0.000E+00 0.000E+00 0.000E+00 0.000E+00 0.000E+00 0.000E+00 0.000E+00 0.000E+00 0.000E+00
BIGSUB 131     2010    1 .40099E+02     0.000     0.000    35.506    14.093   128.412     0.000     0.000     0.000     0.000     0.000     0.000     0.000     0.000     0.000     0.000     0.000     0.000     0.000 0.000E+00 0.000E+00 0.000E+00 0.000E+00 0.000E+00 0.000E+00 0.000E+00 0.000E+00 0.000E+00 0.000E+00 0.000E+00 0.000E+00 0.000E+00 0.000E+00
BIGSUB 132     2010    1 .73705E+02     0.000     0.000    37.209    15.258   119.948     0.000     0.000     0.000     0.000     0.000     0.000     0.000     0.000     0.000     0.000     0.000     0.000     0.000 0.000E+00 0.000E+00 0.000E+00 0.000E+00 0.000E+00 0.000E+00 0.000E+00 0.000E+00 0.000E+00 0.000E+00 0.000E+00 0.000E+00 0.000E+00 0.000E+00
BIGSUB 133     2010    1 .39979E+02     0.000     0.000    38.366    16.007   118.560     0.000     0.000     0.000     0.000     0.000     0.000     0.000     0.000     0.000     0.000     0.000     0.000     0.000 0.000E+00 0.000E+00 0.000E+00 0.000E+00 0.000E+00 0.000E+00 0.000E+00 0.000E+00 0.000E+00 0.000E+00 0.000E+00 0.000E+00 0.000E+00 0.000E+00
BIGSUB   1     2010    2 .45854E+02    60.932     8.700    50.630    28.920   122.259    26.178     2.295    11.335    26.699     2.577     4.006     0.491     0.001     0.001     0.619    12.887     0.731     0.023 0.000E+00 0.000E+00 0.000E+00 0.000E+00 0.000E+00 0.000E+00 0.000E+00 0.000E+00 0.000E+00 0.000E+00 0.000E+00 0.000E+00 0.000E+00 0.000E+00
BIGSUB   2     2010    2 .86189E+02    60.420     8.700    50.516    29.179   138.691    26.235     1.870    10.679    26.403     2.014     2.592     0.318     0.002     0.000     0.432    13.682     0.612     0.016 0.000E+00 0.000E+00 0.000E+00 0.000E+00 0.000E+00 0.000E+00 0.000E+00 0.000E+00 0.000E+00 0.000E+00 0.000E+00 0.000E+00 0.000E+00 0.000E+00
BIGSUB   3     2010    2 .27984E+02    60.932     8.700    50.566    28.771   121.391    26.002     2.186    11.313    26.856     2.219     2.401     0.294     0.001     0.001     0.485    13.175     0.748     0.023 0.000E+00 0.000E+00 0.000E+00 0.000E+00 0.000E+00 0.000E+00 0.000E+00 0.000E+00 0.000E+00 0.000E+00 0.000E+00 0.000E+00 0.000E+00 0.000E+00
BIGSUB   4     2010    2 .24648E+02    60.932     8.700    50.492    29.193   140.193    28.042     3.592    11.751    24.732     2.169     2.555     0.313     0.006     0.001     0.571     9.200     0.511     0.023 0.000E+00 0.000E+00 0.000E+00 0.000E+00 0.000E+00 0.000E+00 0.000E+00 0.000E+00 0.000E+00 0.000E+00 0.000E+00 0.000E+00 0.000E+00 0.000E+00
BIGSUB   5     2010    2 .27452E+02    48.725     8.300    50.627    28.814   120.743    24.191     2.397    11.676    25.072     2.628     2.820     0.345     0.001     0.001     0.569    10.810     0.658     0.024 0.000E+00 0.000E+00 0.000E+00 0.000E+00 0.000E+00 0.000E+00 0.000E+00 0.000E+00 0.000E+00 0.000E+00 0.000E+00 0.000E+00 0.000E+00 0.000E+00
BIGSUB   6     2010    2 .38126E+02    60.932     8.700    50.575    28.715   118.718    25.575     1.551    11.098    27.545     1.693     1.707     0.209     0.001     0.000     0.344    14.718     0.782     0.022 0.000E+00 0.000E+00 0.000E+00 0.000E+00 0.000E+00 0.000E+00 0.000E+00 0.000E+00 0.000E+00 0.000E+00 0.000E+00 0.000E+00 0.000E+00 0.000E+00
BIGSUB   7     2010    2 .33075E+00    60.932     8.700    50.350    30.695   191.670    34.786     3.723    13.171    18.631     0.847     1.284     0.157     0.003     0.001     0.241     1.529     0.067     0.018 0.000E+00 0.000E+00 0.000E+00 0.000E+00 0.000E+00 0.000E+00 0.000E+00 0.000E+00 0.000E+00 0.000E+00 0.000E+00 0.000E+00 0.000E+00 0.000E+00
BIGSUB   8     2010    2 .26952E+02    60.932     8.700    50.427    28.965   133.627    29.051     3.072    12.437    24.402     1.736     2.147     0.263     0.002     0.001     0.430     8.693     0.471     0.025 0.000E+00 0.000E+00 0.000E+00 0.000E+00 0.000E+00 0.000E+00 0.000E+00 0.000E+00 0.000E+00 0.000E+00 0.000E+00 0.000E+00 0.000E+00 0.000E+00
BIGSUB   9     2010    2 .22204E+02    48.725     8.300    50.597    28.754   120.666    24.173     2.507    11.614    25.226     2.593     2.624     0.321     0.001     0.001     0.530    10.917     0.626     0.023 0.000E+00 0.000E+00 0.000E+00 0.000E+00 0.000E+00 0.000E+00 0.000E+00 0.000E+00 0.000E+00 0.000E+00 0.000E+00 0.000E+00 0.000E+00 0.000E+00
BIGSUB  10     2010    2 .13462E+02    48.725     8.300    50.496    28.810   131.196    26.167     2.939    12.283    23.516     1.434     1.683     0.206     0.001     0.001     0.340     8.097     0.374     0.020 0.000E+00 0.000E+00 0.000E+00 0.000E+00 0.000E+00 0.000E+00 0.000E+00 0.000E+00 0.000E+00 0.000E+00 0.000E+00 0.000E+00 0.000E+00 0.000E+00
BIGSUB  11     2010    2 .22291E+02    60.932     8.700    50.917    29.039   127.458    26.756     1.992    11.231    26.510     1.267     1.274     0.156     0.006     0.001     0.329    13.107     0.572     0.017 0.000E+00 0.000E+00 0.000E+00 0.000E+00 0.000E+00 0.000E+00 0.000E+00 0.000E+00 0.000E+00 0.000E+00 0.000E+00 0.000E+00 0.000E+00 0.000E+00
BIGSUB  12     2010    2 .32784E+02    48.725     8.300    50.687    28.824   119.490    23.564     2.128    11.289    25.681     2.452     2.543     0.311     0.001     0.001     0.504    12.081     0.665     0.021 0.000E+00 0.000E+00 0.000E+00 0.000E+00 0.000E+00 0.000E+00 0.000E+00 0.000E+00 0.000E+00 0.000E+00 0.000E+00 0.000E+00 0.000E+00 0.000E+00
BIGSUB  13     2010    2 .79636E+01    48.725     8.300    50.473    29.069   141.340    26.822     2.923    12.284    22.719     1.126     1.424     0.174     0.001     0.001     0.280     7.314     0.331     0.019 0.000E+00 0.000E+00 0.000E+00 0.000E+00 0.000E+00 0.000E+00 0.000E+00 0.000E+00 0.000E+00 0.000E+00 0.000E+00 0.000E+00 0.000E+00 0.000E+00
BIGSUB  14     2010    2 .22689E+02    48.725     8.300    47.651    28.223   136.782    26.018     3.500    12.854    24.040     3.413     3.737     0.458     0.001     0.001     0.749     7.478     0.496     0.026 0.000E+00 0.000E+00 0.000E+00 0.000E+00 0.000E+00 0.000E+00 0.000E+00 0.000E+00 0.000E+00 0.000E+00 0.000E+00 0.000E+00 0.000E+00 0.000E+00
BIGSUB  15     2010    2 .26213E+01    48.725     0.000    46.822    27.130   119.273    25.145     3.220    11.951    24.939     1.070     1.273     0.156     0.002     0.001     0.266     9.575     0.438     0.020 0.000E+00 0.000E+00 0.000E+00 0.000E+00 0.000E+00 0.000E+00 0.000E+00 0.000E+00 0.000E+00 0.000E+00 0.000E+00 0.000E+00 0.000E+00 0.000E+00
BIGSUB  16     2010    2 .52920E-01    48.725     0.000    46.723    28.754   185.299    32.781     3.212    14.010    17.483     0.159     0.366     0.045     0.001     0.001     0.069     0.038     0.002     0.020 0.000E+00 0.000E+00 0.000E+00 0.000E+00 0.000E+00 0.000E+00 0.000E+00 0.000E+00 0.000E+00 0.000E+00 0.000E+00 0.000E+00 0.000E+00 0.000E+00
BIGSUB  17     2010    2 .33622E+01    48.725     0.000    46.793    28.591   178.576    26.815     4.823    11.012    21.268     2.013     2.460     0.301     0.003     0.001     0.464     5.257     0.230     0.014 0.000E+00 0.000E+00 0.000E+00 0.000E+00 0.000E+00 0.000E+00 0.000E+00 0.000E+00 0.000E+00 0.000E+00 0.000E+00 0.000E+00 0.000E+00 0.000E+00
BIGSUB  18     2010    2 .22436E+02    48.725     8.300    50.580    28.686   120.782    24.266     2.416    11.723    25.149     2.020     2.315     0.284     0.001     0.001     0.467    10.820     0.585     0.023 0.000E+00 0.000E+00 0.000E+00 0.000E+00 0.000E+00 0.000E+00 0.000E+00 0.000E+00 0.000E+00 0.000E+00 0.000E+00 0.000E+00 0.000E+00 0.000E+00
BIGSUB  19     2010    2 .41798E+02    57.030     0.000    47.100    26.874   121.334    29.058     4.174    13.795    30.451     5.694     5.665     0.694     0.002     0.001     1.147    12.255     0.758     0.034 0.000E+00 0.000E+00 0.000E+00 0.000E+00 0.000E+00 0.000E+00 0.000E+00 0.000E+00 0.000E+00 0.000E+00 0.000E+00 0.000E+00 0.000E+00 0.000E+00
BIGSUB  20     2010    2 .45842E+02    55.829     0.000    47.559    26.021   116.490    26.253     2.283    13.314    33.983     4.096     3.297     0.404     0.001     0.001     0.698    18.162     0.742     0.025 0.000E+00 0.000E+00 0.000E+00 0.000E+00 0.000E+00 0.000E+00 0.000E+00 0.000E+00 0.000E+00 0.000E+00 0.000E+00 0.000E+00 0.000E+00 0.000E+00
BIGSUB  21     2010    2 .41386E+02    54.330     0.000    46.340    26.069   131.840    29.774     3.607    14.881    31.636     3.981     6.756     0.828     0.002     0.001     0.914    12.900     0.566     0.028 0.000E+00 0.000E+00 0.000E+00 0.000E+00 0.000E+00 0.000E+00 0.000E+00 0.000E+00 0.000E+00 0.000E+00 0.000E+00 0.000E+00 0.000E+00 0.000E+00
BIGSUB  22     2010    2 .25137E+02    54.991    14.088    43.581    24.840   114.385    30.834     2.072    15.344    31.507     2.869     6.274     0.769     0.000     0.001     0.720    13.833     0.715     0.034 0.000E+00 0.000E+00 0.000E+00 0.000E+00 0.000E+00 0.000E+00 0.000E+00 0.000E+00 0.000E+00 0.000E+00 0.000E+00 0.000E+00 0.000E+00 0.000E+00
BIGSUB  23     2010    2 .79468E+02    48.725     8.300    48.486    28.827   134.639    24.070     2.778    11.829    25.777     3.227     3.416     0.418     0.001     0.001     0.666    10.978     0.570     0.021 0.000E+00 0.000E+00 0.000E+00 0.000E+00 0.000E+00 0.000E+00 0.000E+00 0.000E+00 0.000E+00 0.000E+00 0.000E+00 0.000E+00 0.000E+00 0.000E+00
BIGSUB  24     2010    2 .24827E+02    48.725     0.000    46.783    27.856   141.240    29.036     5.107    13.486    20.640     1.750     2.449     0.300     0.002     0.001     0.487     1.830     0.120     0.031 0.000E+00 0.000E+00 0.000E+00 0.000E+00 0.000E+00 0.000E+00 0.000E+00 0.000E+00 0.000E+00 0.000E+00 0.000E+00 0.000E+00 0.000E+00 0.000E+00
BIGSUB  25     2010    2 .22920E+02    55.829     0.000    47.671    26.403   134.500    26.233     3.532    12.711    32.819     4.798     4.005     0.491     0.002     0.001     0.846    16.366     0.668     0.023 0.000E+00 0.000E+00 0.000E+00 0.000E+00 0.000E+00 0.000E+00 0.000E+00 0.000E+00 0.000E+00 0.000E+00 0.000E+00 0.000E+00 0.000E+00 0.000E+00
BIGSUB  26     2010    2 .44894E+01    55.829     0.000    47.093    26.462   131.655    32.378     3.864    16.419    29.997     4.271     3.497     0.428     0.002     0.001     0.696     9.440     0.457     0.038 0.000E+00 0.000E+00 0.000E+00 0.000E+00 0.000E+00 0.000E+00 0.000E+00 0.000E+00 0.000E+00 0.000E+00 0.000E+00 0.000E+00 0.000E+00 0.000E+00
BIGSUB  27     2010    2 .10460E+02    48.725     0.000    51.577    30.738   155.988    29.897     4.148    13.497    18.851     0.933     1.462     0.179     0.002     0.001     0.287     0.990     0.061     0.027 0.000E+00 0.000E+00 0.000E+00 0.000E+00 0.000E+00 0.000E+00 0.000E+00 0.000E+00 0.000E+00 0.000E+00 0.000E+00 0.000E+00 0.000E+00 0.000E+00
BIGSUB  28     2010    2 .30092E+02    48.725     0.000    50.737    29.482   130.628    25.660     3.364    12.075    22.602     2.365     2.837     0.347     0.002     0.001     0.564     6.968     0.453     0.026 0.000E+00 0.000E+00 0.000E+00 0.000E+00 0.000E+00 0.000E+00 0.000E+00 0.000E+00 0.000E+00 0.000E+00 0.000E+00 0.000E+00 0.000E+00 0.000E+00
BIGSUB  29     2010    2 .10686E+02    57.030     0.000    52.666    31.220   165.140    34.661     6.689    15.243    24.312     2.204     2.884     0.353     0.006     0.002     0.559     2.132     0.112     0.031 0.000E+00 0.000E+00 0.000E+00 0.000E+00 0.000E+00 0.000E+00 0.000E+00 0.000E+00 0.000E+00 0.000E+00 0.000E+00 0.000E+00 0.000E+00 0.000E+00
BIGSUB  30     2010    2 .43433E+02    55.829     0.000    47.148    26.498   138.694    31.474     4.508    15.651    29.634     3.590     3.738     0.458     0.002     0.001     0.756     9.215     0.431     0.036 0.000E+00 0.000E+00 0.000E+00 0.000E+00 0.000E+00 0.000E+00 0.000E+00 0.000E+00 0.000E+00 0.000E+00 0.000E+00 0.000E+00 0.000E+00 0.000E+00
BIGSUB  31     2010    2 .32131E+02    55.829     0.000    47.245    26.314   125.480    28.338     3.644    14.292    32.540     4.835     5.237     0.641     0.002     0.001     0.893    14.365     0.691     0.031 0.000E+00 0.000E+00 0.000E+00 0.000E+00 0.000E+00 0.000E+00 0.000E+00 0.000E+00 0.000E+00 0.000E+00 0.000E+00 0.000E+00 0.000E+00 0.000E+00
BIGSUB  32     2010    2 .32989E+02    58.931     0.000    50.715    30.732   144.698    30.402     6.883    15.105    28.912     4.074     4.747     0.582     0.002     0.002     0.940     6.678     0.379     0.031 0.000E+00 0.000E+00 0.000E+00 0.000E+00 0.000E+00 0.000E+00 0.000E+00 0.000E+00 0.000E+00 0.000E+00 0.000E+00 0.000E+00 0.000E+00 0.000E+00
BIGSUB  33     2010    2 .38508E+02    58.931     0.000    50.986    30.218   120.696    26.802     5.895    13.689    31.998     5.485     6.208     0.760     0.002     0.002     1.188    12.188     0.662     0.030 0.000E+00 0.000E+00 0.000E+00 0.000E+00 0.000E+00 0.000E+00 0.000E+00 0.000E+00 0.000E+00 0.000E+00 0.000E+00 0.000E+00 0.000E+00 0.000E+00
BIGSUB  34     2010    2 .74614E+02    58.931     0.000    50.998    30.289   123.418    26.836     6.068    13.619    31.889     6.014     6.426     0.787     0.002     0.002     1.235    11.978     0.613     0.030 0.000E+00 0.000E+00 0.000E+00 0.000E+00 0.000E+00 0.000E+00 0.000E+00 0.000E+00 0.000E+00 0.000E+00 0.000E+00 0.000E+00 0.000E+00 0.000E+00
BIGSUB  35     2010    2 .10432E+02    57.030     0.000    52.729    31.137   162.456    34.095     8.205    15.208    24.263     1.156     1.792     0.221     0.012     0.003     0.454     0.599     0.030     0.035 0.000E+00 0.000E+00 0.000E+00 0.000E+00 0.000E+00 0.000E+00 0.000E+00 0.000E+00 0.000E+00 0.000E+00 0.000E+00 0.000E+00 0.000E+00 0.000E+00
BIGSUB  36     2010    2 .86277E+02    57.030     0.000    48.174    28.054   132.640    31.683     5.184    14.841    28.612     3.846     4.295     0.526     0.002     0.001     0.862     8.341     0.501     0.036 0.000E+00 0.000E+00 0.000E+00 0.000E+00 0.000E+00 0.000E+00 0.000E+00 0.000E+00 0.000E+00 0.000E+00 0.000E+00 0.000E+00 0.000E+00 0.000E+00
BIGSUB  37     2010    2 .13750E+02    55.829     0.000    47.137    26.214   117.637    29.610     4.990    15.272    31.829     4.747     5.945     0.728     0.004     0.001     1.025    11.311     0.620     0.039 0.000E+00 0.000E+00 0.000E+00 0.000E+00 0.000E+00 0.000E+00 0.000E+00 0.000E+00 0.000E+00 0.000E+00 0.000E+00 0.000E+00 0.000E+00 0.000E+00
BIGSUB  38     2010    2 .66594E+02    55.829     0.000    47.287    26.733   134.649    30.610     4.774    15.323    30.770     4.610     7.732     0.947     0.002     0.001     1.089    10.417     0.551     0.033 0.000E+00 0.000E+00 0.000E+00 0.000E+00 0.000E+00 0.000E+00 0.000E+00 0.000E+00 0.000E+00 0.000E+00 0.000E+00 0.000E+00 0.000E+00 0.000E+00
BIGSUB  39     2010    2 .49092E+01    51.827     0.000    50.523    29.593   159.131    31.259     7.041    14.111    21.443     0.658     1.307     0.160     0.004     0.002     0.260     0.058     0.003     0.023 0.000E+00 0.000E+00 0.000E+00 0.000E+00 0.000E+00 0.000E+00 0.000E+00 0.000E+00 0.000E+00 0.000E+00 0.000E+00 0.000E+00 0.000E+00 0.000E+00
BIGSUB  40     2010    2 .17745E+02    51.827     0.000    50.533    29.274   143.761    31.555     6.752    14.755    21.867     0.846     1.596     0.196     0.003     0.002     0.315     0.115     0.006     0.027 0.000E+00 0.000E+00 0.000E+00 0.000E+00 0.000E+00 0.000E+00 0.000E+00 0.000E+00 0.000E+00 0.000E+00 0.000E+00 0.000E+00 0.000E+00 0.000E+00
BIGSUB  41     2010    2 .19859E+02    51.827     0.000    50.613    29.146   139.441    28.358     5.926    13.350    23.894     2.023     2.717     0.333     0.003     0.002     0.539     4.395     0.281     0.026 0.000E+00 0.000E+00 0.000E+00 0.000E+00 0.000E+00 0.000E+00 0.000E+00 0.000E+00 0.000E+00 0.000E+00 0.000E+00 0.000E+00 0.000E+00 0.000E+00
BIGSUB  42     2010    2 .83111E+02    57.030     0.000    50.821    28.826   128.663    31.226     6.536    14.495    27.537     3.133     3.794     0.465     0.005     0.002     0.866     6.267     0.401     0.036 0.000E+00 0.000E+00 0.000E+00 0.000E+00 0.000E+00 0.000E+00 0.000E+00 0.000E+00 0.000E+00 0.000E+00 0.000E+00 0.000E+00 0.000E+00 0.000E+00
BIGSUB  43     2010    2 .68870E+02    58.931     0.000    50.992    30.250   122.313    28.005     5.229    14.252    31.386     4.904     5.213     0.639     0.002     0.001     1.024    11.670     0.621     0.031 0.000E+00 0.000E+00 0.000E+00 0.000E+00 0.000E+00 0.000E+00 0.000E+00 0.000E+00 0.000E+00 0.000E+00 0.000E+00 0.000E+00 0.000E+00 0.000E+00
BIGSUB  44     2010    2 .43924E+02    51.827     0.000    55.254    32.478   134.088    30.012     4.449    14.872    23.939     1.254     1.744     0.214     0.002     0.001     0.351     4.365     0.227     0.031 0.000E+00 0.000E+00 0.000E+00 0.000E+00 0.000E+00 0.000E+00 0.000E+00 0.000E+00 0.000E+00 0.000E+00 0.000E+00 0.000E+00 0.000E+00 0.000E+00
BIGSUB  45     2010    2 .31932E+02    51.827     0.000    52.221    30.213   131.932    29.381     4.973    14.278    23.837     2.027     2.677     0.328     0.002     0.001     0.535     4.346     0.255     0.030 0.000E+00 0.000E+00 0.000E+00 0.000E+00 0.000E+00 0.000E+00 0.000E+00 0.000E+00 0.000E+00 0.000E+00 0.000E+00 0.000E+00 0.000E+00 0.000E+00
BIGSUB  46     2010    2 .11068E+02    51.827     0.000    52.902    30.908   144.548    28.095     4.092    13.183    24.408     1.522     1.773     0.217     0.002     0.001     0.352     6.914     0.337     0.022 0.000E+00 0.000E+00 0.000E+00 0.000E+00 0.000E+00 0.000E+00 0.000E+00 0.000E+00 0.000E+00 0.000E+00 0.000E+00 0.000E+00 0.000E+00 0.000E+00
BIGSUB  47     2010    2 .75818E+02    55.829     0.000    47.086    26.439   128.294    32.656     4.413    16.755    29.589     3.720     4.357     0.534     0.002     0.001     0.814     8.141     0.423     0.042 0.000E+00 0.000E+00 0.000E+00 0.000E+00 0.000E+00 0.000E+00 0.000E+00 0.000E+00 0.000E+00 0.000E+00 0.000E+00 0.000E+00 0.000E+00 0.000E+00
BIGSUB  48     2010    2 .33194E+02    65.834     1.000    47.214    27.709   120.776    35.633     7.864    18.170    36.065     5.276     6.540     0.801     0.003     0.002     1.282     9.722     0.517     0.050 0.000E+00 0.000E+00 0.000E+00 0.000E+00 0.000E+00 0.000E+00 0.000E+00 0.000E+00 0.000E+00 0.000E+00 0.000E+00 0.000E+00 0.000E+00 0.000E+00
BIGSUB  49     2010    2 .57024E+02    51.827     0.000    50.946    29.030   127.487    27.066     3.561    13.228    25.326     3.090     3.442     0.422     0.001     0.001     0.691     8.314     0.510     0.029 0.000E+00 0.000E+00 0.000E+00 0.000E+00 0.000E+00 0.000E+00 0.000E+00 0.000E+00 0.000E+00 0.000E+00 0.000E+00 0.000E+00 0.000E+00 0.000E+00
BIGSUB  50     2010    2 .12993E+02    51.827     0.000    50.603    28.943   134.655    28.946     2.730    13.897    24.300     1.204     1.457     0.178     0.002     0.001     0.287     7.439     0.374     0.027 0.000E+00 0.000E+00 0.000E+00 0.000E+00 0.000E+00 0.000E+00 0.000E+00 0.000E+00 0.000E+00 0.000E+00 0.000E+00 0.000E+00 0.000E+00 0.000E+00
BIGSUB  51     2010    2 .69997E+02    65.834     1.000    47.086    27.804   125.524    34.126     8.325    17.228    36.813     7.905     8.578     1.051     0.003     0.002     1.720    10.967     0.606     0.045 0.000E+00 0.000E+00 0.000E+00 0.000E+00 0.000E+00 0.000E+00 0.000E+00 0.000E+00 0.000E+00 0.000E+00 0.000E+00 0.000E+00 0.000E+00 0.000E+00
BIGSUB  52     2010    2 .25723E+02    65.834     1.000    47.224    27.691   113.556    32.609     6.373    16.477    37.994     5.352     6.494     0.795     0.003     0.002     1.194    14.862     0.673     0.039 0.000E+00 0.000E+00 0.000E+00 0.000E+00 0.000E+00 0.000E+00 0.000E+00 0.000E+00 0.000E+00 0.000E+00 0.000E+00 0.000E+00 0.000E+00 0.000E+00
BIGSUB  53     2010    2 .28527E+02    65.834     1.000    50.927    30.602   123.475    33.471     7.385    17.095    37.515     7.239     7.611     0.932     0.002     0.002     1.542    12.743     0.627     0.043 0.000E+00 0.000E+00 0.000E+00 0.000E+00 0.000E+00 0.000E+00 0.000E+00 0.000E+00 0.000E+00 0.000E+00 0.000E+00 0.000E+00 0.000E+00 0.000E+00
BIGSUB  54     2010    2 .46893E+02    40.421     6.000    61.196    40.141   210.882    15.132     6.435     3.811    10.458     0.498     0.826     0.102     0.007     0.001     0.229     0.150     0.005     0.002 0.000E+00 0.000E+00 0.000E+00 0.000E+00 0.000E+00 0.000E+00 0.000E+00 0.000E+00 0.000E+00 0.000E+00 0.000E+00 0.000E+00 0.000E+00 0.000E+00
BIGSUB  55     2010    2 .30643E+02    40.421     6.000    53.543    32.755   183.368    14.609     8.606     4.073    12.945     0.536     0.919     0.116     0.013     0.003     0.462     0.199     0.008     0.003 0.000E+00 0.000E+00 0.000E+00 0.000E+00 0.000E+00 0.000E+00 0.000E+00 0.000E+00 0.000E+00 0.000E+00 0.000E+00 0.000E+00 0.000E+00 0.000E+00
BIGSUB  56     2010    2 .94436E+01    51.827     0.000    53.303    30.486   112.807    26.798     0.956    13.520    26.756     0.744     0.742     0.091     0.000     0.000     0.151    12.049     0.577     0.028 0.000E+00 0.000E+00 0.000E+00 0.000E+00 0.000E+00 0.000E+00 0.000E+00 0.000E+00 0.000E+00 0.000E+00 0.000E+00 0.000E+00 0.000E+00 0.000E+00
BIGSUB  57     2010    2 .15118E+01    51.827     0.000    55.185    33.039   168.615    26.586     2.612    12.109    25.247     1.255     1.478     0.181     0.001     0.001     0.282    10.325     0.441     0.017 0.000E+00 0.000E+00 0.000E+00 0.000E+00 0.000E+00 0.000E+00 0.000E+00 0.000E+00 0.000E+00 0.000E+00 0.000E+00 0.000E+00 0.000E+00 0.000E+00
BIGSUB  58     2010    2 .12948E+01    67.435     0.000   102.785    71.338  1492.921    35.345     6.132    16.430    34.896     0.491     0.483     0.059     0.000     0.000     0.096    12.057     0.063     0.004 0.000E+00 0.000E+00 0.000E+00 0.000E+00 0.000E+00 0.000E+00 0.000E+00 0.000E+00 0.000E+00 0.000E+00 0.000E+00 0.000E+00 0.000E+00 0.000E+00
BIGSUB  59     2010    2 .33671E+02    65.834     1.000    48.908    29.256   132.207    33.926     8.830    17.082    36.732     7.715     8.469     1.037     0.003     0.002     1.695    10.529     0.572     0.044 0.000E+00 0.000E+00 0.000E+00 0.000E+00 0.000E+00 0.000E+00 0.000E+00 0.000E+00 0.000E+00 0.000E+00 0.000E+00 0.000E+00 0.000E+00 0.000E+00
BIGSUB  60     2010    2 .38787E+02    67.435     0.000    50.687    30.102   132.574    37.174     8.593    17.889    33.840     5.998     7.173     0.879     0.002     0.002     1.429     7.055     0.414     0.047 0.000E+00 0.000E+00 0.000E+00 0.000E+00 0.000E+00 0.000E+00 0.000E+00 0.000E+00 0.000E+00 0.000E+00 0.000E+00 0.000E+00 0.000E+00 0.000E+00
BIGSUB  61     2010    2 .54657E+02    65.834     0.000    57.406    34.576   127.365    32.589     7.582    16.618    37.036     6.315     6.505     0.797     0.003     0.002     1.353    12.552     0.596     0.040 0.000E+00 0.000E+00 0.000E+00 0.000E+00 0.000E+00 0.000E+00 0.000E+00 0.000E+00 0.000E+00 0.000E+00 0.000E+00 0.000E+00 0.000E+00 0.000E+00
BIGSUB  62     2010    2 .76482E+02    67.435     0.000    50.767    30.221   132.816    37.072     7.836    17.665    33.957     6.794     7.059     0.865     0.003     0.002     1.383     8.155     0.394     0.041 0.000E+00 0.000E+00 0.000E+00 0.000E+00 0.000E+00 0.000E+00 0.000E+00 0.000E+00 0.000E+00 0.000E+00 0.000E+00 0.000E+00 0.000E+00 0.000E+00
BIGSUB  63     2010    2 .94665E+01    67.435     0.000    50.633    30.430   147.162    39.563     9.645    18.761    31.793     5.291     6.568     0.805     0.003     0.002     1.294     3.069     0.165     0.047 0.000E+00 0.000E+00 0.000E+00 0.000E+00 0.000E+00 0.000E+00 0.000E+00 0.000E+00 0.000E+00 0.000E+00 0.000E+00 0.000E+00 0.000E+00 0.000E+00
BIGSUB  64     2010    2 .17570E+02    40.421     6.000    48.776    29.425   186.079    15.936     7.938     3.839    11.920     0.682     1.192     0.148     0.010     0.002     0.351     0.081     0.003     0.002 0.000E+00 0.000E+00 0.000E+00 0.000E+00 0.000E+00 0.000E+00 0.000E+00 0.000E+00 0.000E+00 0.000E+00 0.000E+00 0.000E+00 0.000E+00 0.000E+00
BIGSUB  65     2010    2 .39035E+02    40.421     6.000    48.181    28.622   165.976    21.248     4.046     6.258    10.610     0.507     0.916     0.113     0.005     0.001     0.208     0.204     0.009     0.006 0.000E+00 0.000E+00 0.000E+00 0.000E+00 0.000E+00 0.000E+00 0.000E+00 0.000E+00 0.000E+00 0.000E+00 0.000E+00 0.000E+00 0.000E+00 0.000E+00
BIGSUB  66     2010    2 .89894E+01    40.421     6.000    48.152    28.893   184.040    17.035     6.737     4.456    11.366     0.439     0.804     0.101     0.014     0.003     0.303     0.100     0.004     0.003 0.000E+00 0.000E+00 0.000E+00 0.000E+00 0.000E+00 0.000E+00 0.000E+00 0.000E+00 0.000E+00 0.000E+00 0.000E+00 0.000E+00 0.000E+00 0.000E+00
BIGSUB  67     2010    2 .90405E+00    40.421     6.000    48.144    28.967   184.199    20.578     4.868     5.337    10.349     0.318     0.664     0.081     0.008     0.001     0.139     0.058     0.003     0.004 0.000E+00 0.000E+00 0.000E+00 0.000E+00 0.000E+00 0.000E+00 0.000E+00 0.000E+00 0.000E+00 0.000E+00 0.000E+00 0.000E+00 0.000E+00 0.000E+00
BIGSUB  68     2010    2 .17293E+02    40.421     6.000    48.145    28.936   184.138    19.162     5.611     5.002    10.754     0.425     0.804     0.100     0.008     0.002     0.227     0.059     0.003     0.003 0.000E+00 0.000E+00 0.000E+00 0.000E+00 0.000E+00 0.000E+00 0.000E+00 0.000E+00 0.000E+00 0.000E+00 0.000E+00 0.000E+00 0.000E+00 0.000E+00
BIGSUB  69     2010    2 .20709E+02    40.421     6.000    50.904    30.983   186.987    19.281     5.552     5.098    10.985     0.524     0.925     0.114     0.008     0.002     0.234     0.252     0.012     0.004 0.000E+00 0.000E+00 0.000E+00 0.000E+00 0.000E+00 0.000E+00 0.000E+00 0.000E+00 0.000E+00 0.000E+00 0.000E+00 0.000E+00 0.000E+00 0.000E+00
BIGSUB  70     2010    2 .44265E+02    51.827     0.000    52.048    30.199   140.544    29.089     3.844    13.904    23.791     1.779     2.172     0.266     0.002     0.001     0.428     5.810     0.291     0.028 0.000E+00 0.000E+00 0.000E+00 0.000E+00 0.000E+00 0.000E+00 0.000E+00 0.000E+00 0.000E+00 0.000E+00 0.000E+00 0.000E+00 0.000E+00 0.000E+00
BIGSUB  71     2010    2 .12188E+02    67.435     0.000    50.611    30.548   152.958    35.728    11.600    16.548    33.835     6.619     7.427     0.910     0.004     0.003     1.482     5.409     0.290     0.035 0.000E+00 0.000E+00 0.000E+00 0.000E+00 0.000E+00 0.000E+00 0.000E+00 0.000E+00 0.000E+00 0.000E+00 0.000E+00 0.000E+00 0.000E+00 0.000E+00
BIGSUB  72     2010    2 .31804E+02    67.435     0.000    51.039    30.172   126.204    36.075     6.981    17.344    34.906     5.706     6.084     0.745     0.002     0.002     1.216    10.285     0.498     0.043 0.000E+00 0.000E+00 0.000E+00 0.000E+00 0.000E+00 0.000E+00 0.000E+00 0.000E+00 0.000E+00 0.000E+00 0.000E+00 0.000E+00 0.000E+00 0.000E+00
BIGSUB  73     2010    2 .63116E+01    67.435     0.000    50.595    30.949   169.794    34.532    15.438    15.250    33.398     4.355     5.424     0.665     0.011     0.004     1.243     2.457     0.132     0.027 0.000E+00 0.000E+00 0.000E+00 0.000E+00 0.000E+00 0.000E+00 0.000E+00 0.000E+00 0.000E+00 0.000E+00 0.000E+00 0.000E+00 0.000E+00 0.000E+00
BIGSUB  74     2010    2 .12692E+01    40.421     6.000    48.147    28.974   184.245    21.621     4.161     5.703    10.002     0.249     0.542     0.066     0.002     0.001     0.102     0.047     0.002     0.004 0.000E+00 0.000E+00 0.000E+00 0.000E+00 0.000E+00 0.000E+00 0.000E+00 0.000E+00 0.000E+00 0.000E+00 0.000E+00 0.000E+00 0.000E+00 0.000E+00
BIGSUB  75     2010    2 .30132E+02    51.827     0.000    50.685    29.136   138.645    29.446     4.312    14.125    23.540     1.685     2.266     0.278     0.003     0.001     0.466     4.866     0.298     0.030 0.000E+00 0.000E+00 0.000E+00 0.000E+00 0.000E+00 0.000E+00 0.000E+00 0.000E+00 0.000E+00 0.000E+00 0.000E+00 0.000E+00 0.000E+00 0.000E+00
BIGSUB  76     2010    2 .13600E+01    67.435     0.000    50.571    31.267   183.711    31.967    18.559    13.377    34.034     4.441     5.455     0.670     0.020     0.005     1.360     1.879     0.078     0.019 0.000E+00 0.000E+00 0.000E+00 0.000E+00 0.000E+00 0.000E+00 0.000E+00 0.000E+00 0.000E+00 0.000E+00 0.000E+00 0.000E+00 0.000E+00 0.000E+00
BIGSUB  77     2010    2 .25220E+02    67.435     0.000    50.700    30.215   137.253    34.786     9.303    16.503    35.026     8.023     8.714     1.067     0.003     0.002     1.733     8.940     0.495     0.040 0.000E+00 0.000E+00 0.000E+00 0.000E+00 0.000E+00 0.000E+00 0.000E+00 0.000E+00 0.000E+00 0.000E+00 0.000E+00 0.000E+00 0.000E+00 0.000E+00
BIGSUB  78     2010    2 .51909E+02    67.435     0.000    50.801    29.972   124.798    34.999     8.504    16.918    35.174     9.662     9.939     1.217     0.002     0.002     1.997     9.464     0.552     0.044 0.000E+00 0.000E+00 0.000E+00 0.000E+00 0.000E+00 0.000E+00 0.000E+00 0.000E+00 0.000E+00 0.000E+00 0.000E+00 0.000E+00 0.000E+00 0.000E+00
BIGSUB  79     2010    2 .33231E+02    40.421     6.000    51.016    30.481   157.737    21.305     3.899     6.922    11.108     0.332     0.659     0.082     0.008     0.001     0.186     0.174     0.009     0.008 0.000E+00 0.000E+00 0.000E+00 0.000E+00 0.000E+00 0.000E+00 0.000E+00 0.000E+00 0.000E+00 0.000E+00 0.000E+00 0.000E+00 0.000E+00 0.000E+00
BIGSUB  80     2010    2 .28811E+02    51.827     8.967    47.151    27.004   137.505    28.032     3.929    13.529    26.481     2.130     2.622     0.321     0.003     0.001     0.557     8.793     0.470     0.026 0.000E+00 0.000E+00 0.000E+00 0.000E+00 0.000E+00 0.000E+00 0.000E+00 0.000E+00 0.000E+00 0.000E+00 0.000E+00 0.000E+00 0.000E+00 0.000E+00
BIGSUB  81     2010    2 .63654E+01    67.435     0.000    50.645    30.314   142.468    29.855    17.220    13.601    36.770     8.954     9.329     1.144     0.013     0.004     2.377     5.721     0.338     0.028 0.000E+00 0.000E+00 0.000E+00 0.000E+00 0.000E+00 0.000E+00 0.000E+00 0.000E+00 0.000E+00 0.000E+00 0.000E+00 0.000E+00 0.000E+00 0.000E+00
BIGSUB  82     2010    2 .59182E+00    67.435     0.000    50.637    30.260   140.351    36.689     8.667    17.429    34.003     4.936     5.942     0.728     0.002     0.002     1.172     7.612     0.401     0.044 0.000E+00 0.000E+00 0.000E+00 0.000E+00 0.000E+00 0.000E+00 0.000E+00 0.000E+00 0.000E+00 0.000E+00 0.000E+00 0.000E+00 0.000E+00 0.000E+00
BIGSUB  83     2010    2 .47258E+02    57.830     9.500    48.909    29.597   176.208    35.806     7.747    11.471    19.771     1.286     2.246     0.275     0.005     0.002     0.426     0.369     0.015     0.014 0.000E+00 0.000E+00 0.000E+00 0.000E+00 0.000E+00 0.000E+00 0.000E+00 0.000E+00 0.000E+00 0.000E+00 0.000E+00 0.000E+00 0.000E+00 0.000E+00
BIGSUB  84     2010    2 .79373E+02    40.421     6.000    48.896    29.291   173.075    22.404     3.321     6.466    10.036     0.342     0.688     0.084     0.002     0.001     0.126     0.145     0.006     0.005 0.000E+00 0.000E+00 0.000E+00 0.000E+00 0.000E+00 0.000E+00 0.000E+00 0.000E+00 0.000E+00 0.000E+00 0.000E+00 0.000E+00 0.000E+00 0.000E+00
BIGSUB  85     2010    2 .58331E+02    57.830     9.466    47.073    27.365   131.500    31.073     5.987    11.022    24.204     5.116     5.971     0.731     0.002     0.002     1.194     7.015     0.464     0.023 0.000E+00 0.000E+00 0.000E+00 0.000E+00 0.000E+00 0.000E+00 0.000E+00 0.000E+00 0.000E+00 0.000E+00 0.000E+00 0.000E+00 0.000E+00 0.000E+00
BIGSUB  86     2010    2 .29852E+02    67.435     0.000    54.012    32.905   146.953    34.921     9.564    16.490    34.863     7.870     8.363     1.025     0.003     0.002     1.684     8.530     0.438     0.036 0.000E+00 0.000E+00 0.000E+00 0.000E+00 0.000E+00 0.000E+00 0.000E+00 0.000E+00 0.000E+00 0.000E+00 0.000E+00 0.000E+00 0.000E+00 0.000E+00
BIGSUB  87     2010    2 .25581E+02    67.435     0.000    47.360    28.808   139.436    37.167     9.503    17.833    34.753     6.105     6.861     0.840     0.003     0.002     1.374     7.115     0.375     0.043 0.000E+00 0.000E+00 0.000E+00 0.000E+00 0.000E+00 0.000E+00 0.000E+00 0.000E+00 0.000E+00 0.000E+00 0.000E+00 0.000E+00 0.000E+00 0.000E+00
BIGSUB  88     2010    2 .20477E+02    67.435     0.000    50.698    29.845   121.744    35.306     9.508    17.222    35.128     7.962     8.994     1.102     0.002     0.002     1.815     8.104     0.495     0.047 0.000E+00 0.000E+00 0.000E+00 0.000E+00 0.000E+00 0.000E+00 0.000E+00 0.000E+00 0.000E+00 0.000E+00 0.000E+00 0.000E+00 0.000E+00 0.000E+00
BIGSUB  89     2010    2 .22789E+02    40.421     6.000    48.188    28.725   173.460    22.198     3.136     6.274    10.063     0.450     0.732     0.090     0.002     0.001     0.144     0.551     0.025     0.005 0.000E+00 0.000E+00 0.000E+00 0.000E+00 0.000E+00 0.000E+00 0.000E+00 0.000E+00 0.000E+00 0.000E+00 0.000E+00 0.000E+00 0.000E+00 0.000E+00
[...]
BIGSUB  78        0  6.0.51909E+02  1805.133     5.331  1071.422   694.116   133.691   436.939   530.655   383.107  1075.909    67.867    27.376     3.399     0.132     0.029     5.504   141.582     0.421     0.092  0.000E+00 0.000E+00 0.000E+00 0.000E+00 0.000E+00 0.000E+00 0.000E+00 0.000E+00 0.000E+00 0.000E+00 0.000E+00 0.000E+00 0.000E+00     0
BIGSUB  79        0  6.0.33231E+02  1446.910    18.208  1169.288   709.863   158.091   297.258   472.973   251.774   743.512    15.398    16.504     2.240     2.025     0.083     3.624     5.161     0.066     0.179  0.000E+00 0.000E+00 0.000E+00 0.000E+00 0.000E+00 0.000E+00 0.000E+00 0.000E+00 0.000E+00 0.000E+00 0.000E+00 0.000E+00 0.000E+00     0
BIGSUB  80        0  6.0.28811E+02  1712.644    21.212  1069.305   691.338   142.554   359.081   521.154   313.296   991.532    35.928    23.522     2.930     1.367     0.047     4.568   140.022     0.512     0.084  0.000E+00 0.000E+00 0.000E+00 0.000E+00 0.000E+00 0.000E+00 0.000E+00 0.000E+00 0.000E+00 0.000E+00 0.000E+00 0.000E+00 0.000E+00     0
BIGSUB  81        0  6.0.63654E+01  1805.134     5.331  1068.724   697.430   151.648   292.547   738.052   248.926  1076.017    62.512    23.304     3.186     8.463     0.088     5.747    75.292     1.557     0.175  0.000E+00 0.000E+00 0.000E+00 0.000E+00 0.000E+00 0.000E+00 0.000E+00 0.000E+00 0.000E+00 0.000E+00 0.000E+00 0.000E+00 0.000E+00     0
BIGSUB  82        0  6.0.59182E+00  1805.134     5.331  1068.579   699.505   149.451   449.793   545.233   394.928  1070.066    24.268    20.493     2.518     0.013     0.050     3.971   108.742     0.296     0.080  0.000E+00 0.000E+00 0.000E+00 0.000E+00 0.000E+00 0.000E+00 0.000E+00 0.000E+00 0.000E+00 0.000E+00 0.000E+00 0.000E+00 0.000E+00     0
BIGSUB  83        0  6.0.47258E+02  1569.585    21.252  1149.443   717.356   183.309   343.766   521.348   294.120   838.276    24.669    21.681     2.926     2.777     0.078     4.259     6.807     0.092     0.236  0.000E+00 0.000E+00 0.000E+00 0.000E+00 0.000E+00 0.000E+00 0.000E+00 0.000E+00 0.000E+00 0.000E+00 0.000E+00 0.000E+00 0.000E+00     0
BIGSUB  84        0  6.0.79373E+02  1446.910    18.208  1134.559   692.160   181.461   273.154   486.010   226.612   728.869    20.969    21.819     3.036     2.036     0.073     4.467     3.785     0.059     0.203  0.000E+00 0.000E+00 0.000E+00 0.000E+00 0.000E+00 0.000E+00 0.000E+00 0.000E+00 0.000E+00 0.000E+00 0.000E+00 0.000E+00 0.000E+00     0
BIGSUB  85        0  6.0.58331E+02  1569.585    20.200  1067.754   675.521   139.078   350.928   429.656   303.038   861.129    62.696    25.997     3.398     0.459     0.033     5.482   111.968     0.692     0.126  0.000E+00 0.000E+00 0.000E+00 0.000E+00 0.000E+00 0.000E+00 0.000E+00 0.000E+00 0.000E+00 0.000E+00 0.000E+00 0.000E+00 0.000E+00     0
BIGSUB  86        0  6.0.29852E+02  1805.134     5.331  1125.432   739.603   156.057   417.098   566.992   364.526  1073.118    46.678    23.857     3.029     0.735     0.040     4.867   121.983     0.489     0.108  0.000E+00 0.000E+00 0.000E+00 0.000E+00 0.000E+00 0.000E+00 0.000E+00 0.000E+00 0.000E+00 0.000E+00 0.000E+00 0.000E+00 0.000E+00     0
BIGSUB  87        0  6.0.25581E+02  1805.134     9.129  1052.816   695.366   148.605   442.106   563.367   387.654  1078.382    60.452    24.956     3.274     1.460     0.046     5.267   106.597     0.442     0.181  0.000E+00 0.000E+00 0.000E+00 0.000E+00 0.000E+00 0.000E+00 0.000E+00 0.000E+00 0.000E+00 0.000E+00 0.000E+00 0.000E+00 0.000E+00     0
BIGSUB  88        0  6.0.20477E+02  1805.134     5.331  1069.509   687.900   130.597   440.697   554.707   386.500  1081.950    66.370    27.398     3.569     0.834     0.039     5.794   120.010     0.760     0.146  0.000E+00 0.000E+00 0.000E+00 0.000E+00 0.000E+00 0.000E+00 0.000E+00 0.000E+00 0.000E+00 0.000E+00 0.000E+00 0.000E+00 0.000E+00     0
BIGSUB  89        0  6.0.22789E+02  1446.910    18.208  1122.863   691.675   182.026   268.575   473.142   222.245   719.615    27.265    19.498     2.753     1.510     0.065     4.468    11.981     0.121     0.168  0.000E+00 0.000E+00 0.000E+00 0.000E+00 0.000E+00 0.000E+00 0.000E+00 0.000E+00 0.000E+00 0.000E+00 0.000E+00 0.000E+00 0.000E+00     0
BIGSUB  90        0  6.0.53191E+02  1569.585    20.199  1084.274   696.985   153.007   397.904   429.209   346.295   851.597    38.368    21.188     2.781     0.651     0.046     4.230    57.429     0.283     0.175  0.000E+00 0.000E+00 0.000E+00 0.000E+00 0.000E+00 0.000E+00 0.000E+00 0.000E+00 0.000E+00 0.000E+00 0.000E+00 0.000E+00 0.000E+00     0
BIGSUB  91        0  6.0.24741E+02     0.000     0.000  1071.725    22.150     0.000     0.000     0.000     0.000     0.000     0.000     0.000     0.000     0.000     0.000     0.000     0.000     0.000     0.000  0.000E+00 0.000E+00 0.000E+00 0.000E+00 0.000E+00 0.000E+00 0.000E+00 0.000E+00 0.000E+00 0.000E+00 0.000E+00 0.000E+00 0.000E+00     0
BIGSUB  92        0  6.0.56077E+02  1569.585    20.199  1065.736   688.979   165.896   403.819   462.487   351.844   846.401    24.610    19.237     2.639     1.014     0.065     3.846    13.135     0.115     0.234  0.000E+00 0.000E+00 0.000E+00 0.000E+00 0.000E+00 0.000E+00 0.000E+00 0.000E+00 0.000E+00 0.000E+00 0.000E+00 0.000E+00 0.000E+00     0
BIGSUB  93        0  6.0.66944E+00  1569.585    12.583  1068.602   709.877   194.693   375.505   480.629   323.311   823.015     7.377     9.680     1.311     0.832     0.078     2.004     1.611     0.012     0.135  0.000E+00 0.000E+00 0.000E+00 0.000E+00 0.000E+00 0.000E+00 0.000E+00 0.000E+00 0.000E+00 0.000E+00 0.000E+00 0.000E+00 0.000E+00     0
BIGSUB  94        0  6.0.30369E+02  1569.585    12.584  1069.478   690.898   159.997   373.814   468.155   322.560   842.949    45.492    22.742     3.092     1.621     0.050     4.945    34.827     0.350     0.206  0.000E+00 0.000E+00 0.000E+00 0.000E+00 0.000E+00 0.000E+00 0.000E+00 0.000E+00 0.000E+00 0.000E+00 0.000E+00 0.000E+00 0.000E+00     0
BIGSUB  95        0  6.0.95265E+01  1569.585    22.124  1125.091   728.264   173.880   406.527   424.372   351.422   803.456    16.474    16.762     2.190     0.560     0.057     2.941     8.718     0.052     0.169  0.000E+00 0.000E+00 0.000E+00 0.000E+00 0.000E+00 0.000E+00 0.000E+00 0.000E+00 0.000E+00 0.000E+00 0.000E+00 0.000E+00 0.000E+00     0
BIGSUB  96        0  6.0.44356E+01     0.000     0.000  1071.972    26.774     0.000     0.000     0.000     0.000     0.000     0.000     0.000     0.000     0.000     0.000     0.000     0.000     0.000     0.000  0.000E+00 0.000E+00 0.000E+00 0.000E+00 0.000E+00 0.000E+00 0.000E+00 0.000E+00 0.000E+00 0.000E+00 0.000E+00 0.000E+00 0.000E+00     0
BIGSUB  97        0  6.0.17044E+02     0.000     0.000  1146.325   132.987    10.443     0.000     0.000     0.000     0.000     0.000     0.000     0.000     0.000     0.000     0.000     0.000     0.000     0.000  0.000E+00 0.000E+00 0.000E+00 0.000E+00 0.000E+00 0.000E+00 0.000E+00 0.000E+00 0.000E+00 0.000E+00 0.000E+00 0.000E+00 0.000E+00     0
BIGSUB  98        0  6.0.38880E+02  1805.134     9.129  1047.707   692.349   140.040   446.616   570.653   391.874  1077.074    58.436    26.572     3.436     1.388     0.043     5.568    93.567     0.454     0.197  0.000E+00 0.000E+00 0.000E+00 0.000E+00 0.000E+00 0.000E+00 0.000E+00 0.000E+00 0.000E+00 0.000E+00 0.000E+00 0.000E+00 0.000E+00     0
BIGSUB  99        0  6.0.10526E+03  1446.910    18.208  1130.682   677.777   157.713   189.445   575.959   151.578   745.835    24.289    18.337     2.477     6.258     0.081     4.654     9.682     0.138     0.105  0.000E+00 0.000E+00 0.000E+00 0.000E+00 0.000E+00 0.000E+00 0.000E+00 0.000E+00 0.000E+00 0.000E+00 0.000E+00 0.000E+00 0.000E+00     0
BIGSUB 100        0  6.0.22712E+02  1569.585    21.252  1123.265   720.714   166.501   425.330   411.320   369.149   810.881    12.559    14.932     1.908     0.811     0.059     2.673    10.597     0.084     0.176  0.000E+00 0.000E+00 0.000E+00 0.000E+00 0.000E+00 0.000E+00 0.000E+00 0.000E+00 0.000E+00 0.000E+00 0.000E+00 0.000E+00 0.000E+00     0
BIGSUB 101        0  6.0.12029E+02  1569.585    22.124  1210.838   778.768   178.753   397.728   448.312   343.485   820.590    19.395    16.956     2.293     1.268     0.058     3.422    10.263     0.111     0.235  0.000E+00 0.000E+00 0.000E+00 0.000E+00 0.000E+00 0.000E+00 0.000E+00 0.000E+00 0.000E+00 0.000E+00 0.000E+00 0.000E+00 0.000E+00     0
BIGSUB 102        0  6.0.20023E+02  1458.528    19.225  1161.667   727.311   176.003   299.703   424.233   250.323   722.416    31.902    21.168     2.864     1.008     0.054     4.137    34.209     0.311     0.150  0.000E+00 0.000E+00 0.000E+00 0.000E+00 0.000E+00 0.000E+00 0.000E+00 0.000E+00 0.000E+00 0.000E+00 0.000E+00 0.000E+00 0.000E+00     0
BIGSUB 103        0  6.0.41736E+02  1458.528    19.225  1156.469   712.744   170.363   289.259   465.235   241.440   735.011    38.141    21.760     3.023     1.450     0.067     4.671    15.153     0.226     0.177  0.000E+00 0.000E+00 0.000E+00 0.000E+00 0.000E+00 0.000E+00 0.000E+00 0.000E+00 0.000E+00 0.000E+00 0.000E+00 0.000E+00 0.000E+00     0
BIGSUB 104        0  6.0.29717E+02  1458.528    19.225  1148.038   705.178   148.101   331.917   420.492   280.900   734.067    25.896    19.838     2.641     0.787     0.055     4.237    17.500     0.160     0.173  0.000E+00 0.000E+00 0.000E+00 0.000E+00 0.000E+00 0.000E+00 0.000E+00 0.000E+00 0.000E+00 0.000E+00 0.000E+00 0.000E+00 0.000E+00     0
BIGSUB 105        0  6.0.20328E+02     0.000     0.000  1147.173    50.793     3.663     0.000     0.000     0.000     0.000     0.000     0.000     0.000     0.000     0.000     0.000     0.000     0.000     0.000  0.000E+00 0.000E+00 0.000E+00 0.000E+00 0.000E+00 0.000E+00 0.000E+00 0.000E+00 0.000E+00 0.000E+00 0.000E+00 0.000E+00 0.000E+00     0
BIGSUB 106        0  6.0.25620E+02  1458.528    19.225  1186.577   742.593   168.553   315.505   429.769   265.370   727.492    27.291    19.095     2.547     0.927     0.052     4.032    17.951     0.179     0.141  0.000E+00 0.000E+00 0.000E+00 0.000E+00 0.000E+00 0.000E+00 0.000E+00 0.000E+00 0.000E+00 0.000E+00 0.000E+00 0.000E+00 0.000E+00     0
BIGSUB 107        0  6.0.29696E+02     0.000     0.000  1092.487    54.427     2.839     0.000     0.000     0.000     0.000     0.000     0.000     0.000     0.000     0.000     0.000     0.000     0.000     0.000  0.000E+00 0.000E+00 0.000E+00 0.000E+00 0.000E+00 0.000E+00 0.000E+00 0.000E+00 0.000E+00 0.000E+00 0.000E+00 0.000E+00 0.000E+00     0
BIGSUB 108        0  6.0.12128E+01     0.000     0.000  1194.062   202.111    18.069     0.000     0.000     0.000     0.000     0.000     0.000     0.000     0.000     0.000     0.000     0.000     0.000     0.000  0.000E+00 0.000E+00 0.000E+00 0.000E+00 0.000E+00 0.000E+00 0.000E+00 0.000E+00 0.000E+00 0.000E+00 0.000E+00 0.000E+00 0.000E+00     0
BIGSUB 109        0  6.0.38774E+02     0.000     0.000  1085.300    40.633     1.607     0.000     0.000     0.000     0.000     0.000     0.000     0.000     0.000     0.000     0.000     0.000     0.000     0.000  0.000E+00 0.000E+00 0.000E+00 0.000E+00 0.000E+00 0.000E+00 0.000E+00 0.000E+00 0.000E+00 0.000E+00 0.000E+00 0.000E+00 0.000E+00     0
BIGSUB 110        0  6.0.74938E+02     0.000     0.000  1073.462    55.180     4.282     0.000     0.000     0.000     0.000     0.000     0.000     0.000     0.000     0.000     0.000     0.000     0.000     0.000  0.000E+00 0.000E+00 0.000E+00 0.000E+00 0.000E+00 0.000E+00 0.000E+00 0.000E+00 0.000E+00 0.000E+00 0.000E+00 0.000E+00 0.000E+00     0
BIGSUB 111        0  6.0.29993E+02     0.000     0.000  1103.494    72.714     4.492     0.000     0.000     0.000     0.000     0.000     0.000     0.000     0.000     0.000     0.000     0.000     0.000     0.000  0.000E+00 0.000E+00 0.000E+00 0.000E+00 0.000E+00 0.000E+00 0.000E+00 0.000E+00 0.000E+00 0.000E+00 0.000E+00 0.000E+00 0.000E+00     0
BIGSUB 112        0  6.0.64651E+00     0.000     0.000  1071.458    25.542     0.000     0.000     0.000     0.000     0.000     0.000     0.000     0.000     0.000     0.000     0.000     0.000     0.000     0.000  0.000E+00 0.000E+00 0.000E+00 0.000E+00 0.000E+00 0.000E+00 0.000E+00 0.000E+00 0.000E+00 0.000E+00 0.000E+00 0.000E+00 0.000E+00     0
BIGSUB 113        0  6.0.66414E+02  1569.585    12.584  1070.889   685.639   142.715   366.441   428.341   316.151   849.075    58.376    24.026     3.100     0.551     0.037     4.994    87.510     0.450     0.130  0.000E+00 0.000E+00 0.000E+00 0.000E+00 0.000E+00 0.000E+00 0.000E+00 0.000E+00 0.000E+00 0.000E+00 0.000E+00 0.000E+00 0.000E+00     0
BIGSUB 114        0  6.0.38803E+02     0.000     0.000  1109.136    78.417     5.856     0.000     0.000     0.000     0.000     0.000     0.000     0.000     0.000     0.000     0.000     0.000     0.000     0.000  0.000E+00 0.000E+00 0.000E+00 0.000E+00 0.000E+00 0.000E+00 0.000E+00 0.000E+00 0.000E+00 0.000E+00 0.000E+00 0.000E+00 0.000E+00     0
BIGSUB 115        0  6.0.32887E+02     0.000     0.000  1080.451    32.166     1.050     0.000     0.000     0.000     0.000     0.000     0.000     0.000     0.000     0.000     0.000     0.000     0.000     0.000  0.000E+00 0.000E+00 0.000E+00 0.000E+00 0.000E+00 0.000E+00 0.000E+00 0.000E+00 0.000E+00 0.000E+00 0.000E+00 0.000E+00 0.000E+00     0
BIGSUB 116        0  6.0.29806E+02     0.000     0.000  1074.972    23.054     0.000     0.000     0.000     0.000     0.000     0.000     0.000     0.000     0.000     0.000     0.000     0.000     0.000     0.000  0.000E+00 0.000E+00 0.000E+00 0.000E+00 0.000E+00 0.000E+00 0.000E+00 0.000E+00 0.000E+00 0.000E+00 0.000E+00 0.000E+00 0.000E+00     0
BIGSUB 117        0  6.0.81135E+01     0.000     0.000  1071.607    27.004     0.000     0.000     0.000     0.000     0.000     0.000     0.000     0.000     0.000     0.000     0.000     0.000     0.000     0.000  0.000E+00 0.000E+00 0.000E+00 0.000E+00 0.000E+00 0.000E+00 0.000E+00 0.000E+00 0.000E+00 0.000E+00 0.000E+00 0.000E+00 0.000E+00     0
BIGSUB 118        0  6.0.10668E+02     0.000     0.000  1152.682   145.497    12.199     0.000     0.000     0.000     0.000     0.000     0.000     0.000     0.000     0.000     0.000     0.000     0.000     0.000  0.000E+00 0.000E+00 0.000E+00 0.000E+00 0.000E+00 0.000E+00 0.000E+00 0.000E+00 0.000E+00 0.000E+00 0.000E+00 0.000E+00 0.000E+00     0
BIGSUB 119        0  6.0.82472E+02  1458.527    19.225  1146.212   709.532   159.439   293.688   448.458   245.159   728.878    38.146    20.642     2.849     0.875     0.057     4.571    21.869     0.218     0.149  0.000E+00 0.000E+00 0.000E+00 0.000E+00 0.000E+00 0.000E+00 0.000E+00 0.000E+00 0.000E+00 0.000E+00 0.000E+00 0.000E+00 0.000E+00     0
BIGSUB 120        0  6.0.83543E+01     0.000     0.000  1071.900    27.503     0.000     0.000     0.000     0.000     0.000     0.000     0.000     0.000     0.000     0.000     0.000     0.000     0.000     0.000  0.000E+00 0.000E+00 0.000E+00 0.000E+00 0.000E+00 0.000E+00 0.000E+00 0.000E+00 0.000E+00 0.000E+00 0.000E+00 0.000E+00 0.000E+00     0
BIGSUB 121        0  6.0.66700E+02     0.000     0.000  1076.019    24.164     0.158     0.000     0.000     0.000     0.000     0.000     0.000     0.000     0.000     0.000     0.000     0.000     0.000     0.000  0.000E+00 0.000E+00 0.000E+00 0.000E+00 0.000E+00 0.000E+00 0.000E+00 0.000E+00 0.000E+00 0.000E+00 0.000E+00 0.000E+00 0.000E+00     0
BIGSUB 122        0  6.0.41534E+02     0.000     0.000  1112.058    84.143     7.182     0.000     0.000     0.000     0.000     0.000     0.000     0.000     0.000     0.000     0.000     0.000     0.000     0.000  0.000E+00 0.000E+00 0.000E+00 0.000E+00 0.000E+00 0.000E+00 0.000E+00 0.000E+00 0.000E+00 0.000E+00 0.000E+00 0.000E+00 0.000E+00     0
BIGSUB 123        0  6.0.24242E+02     0.000     0.000  1072.911    23.231     0.000     0.000     0.000     0.000     0.000     0.000     0.000     0.000     0.000     0.000     0.000     0.000     0.000     0.000  0.000E+00 0.000E+00 0.000E+00 0.000E+00 0.000E+00 0.000E+00 0.000E+00 0.000E+00 0.000E+00 0.000E+00 0.000E+00 0.000E+00 0.000E+00     0
BIGSUB 124        0  6.0.16211E+02     0.000     0.000  1086.640    46.361     2.544     0.000     0.000     0.000     0.000     0.000     0.000     0.000     0.000     0.000     0.000     0.000     0.000     0.000  0.000E+00 0.000E+00 0.000E+00 0.000E+00 0.000E+00 0.000E+00 0.000E+00 0.000E+00 0.000E+00 0.000E+00 0.000E+00 0.000E+00 0.000E+00     0
BIGSUB 125        0  6.0.26587E+02     0.000     0.000  1072.680    23.500     0.000     0.000     0.000     0.000     0.000     0.000     0.000     0.000     0.000     0.000     0.000     0.000     0.000     0.000  0.000E+00 0.000E+00 0.000E+00 0.000E+00 0.000E+00 0.000E+00 0.000E+00 0.000E+00 0.000E+00 0.000E+00 0.000E+00 0.000E+00 0.000E+00     0
BIGSUB 126        0  6.0.65288E+02     0.000     0.000  1072.511    23.678     0.000     0.000     0.000     0.000     0.000     0.000     0.000     0.000     0.000     0.000     0.000     0.000     0.000     0.000  0.000E+00 0.000E+00 0.000E+00 0.000E+00 0.000E+00 0.000E+00 0.000E+00 0.000E+00 0.000E+00 0.000E+00 0.000E+00 0.000E+00 0.000E+00     0
BIGSUB 127        0  6.0.27142E+02     0.000     0.000  1072.436    23.828     0.000     0.000     0.000     0.000     0.000     0.000     0.000     0.000     0.000     0.000     0.000     0.000     0.000     0.000  0.000E+00 0.000E+00 0.000E+00 0.000E+00 0.000E+00 0.000E+00 0.000E+00 0.000E+00 0.000E+00 0.000E+00 0.000E+00 0.000E+00 0.000E+00     0
BIGSUB 128        0  6.0.88441E+02     0.000     0.000  1079.200    19.833     0.000     0.000     0.000     0.000     0.000     0.000     0.000     0.000     0.000     0.000     0.000     0.000     0.000     0.000  0.000E+00 0.000E+00 0.000E+00 0.000E+00 0.000E+00 0.000E+00 0.000E+00 0.000E+00 0.000E+00 0.000E+00 0.000E+00 0.000E+00 0.000E+00     0
BIGSUB 129        0  6.0.57422E+02     0.000     0.000  1074.036    21.396     0.000     0.000     0.000     0.000     0.000     0.000     0.000     0.000     0.000     0.000     0.000     0.000     0.000     0.000  0.000E+00 0.000E+00 0.000E+00 0.000E+00 0.000E+00 0.000E+00 0.000E+00 0.000E+00 0.000E+00 0.000E+00 0.000E+00 0.000E+00 0.000E+00     0
BIGSUB 130        0  6.0.12472E+01     0.000     0.000  1073.758    19.740     0.000     0.000     0.000     0.000     0.000     0.000     0.000     0.000     0.000     0.000     0.000     0.000     0.000     0.000  0.000E+00 0.000E+00 0.000E+00 0.000E+00 0.000E+00 0.000E+00 0.000E+00 0.000E+00 0.000E+00 0.000E+00 0.000E+00 0.000E+00 0.000E+00     0
BIGSUB 131        0  6.0.40099E+02     0.000     0.000  1073.700    23.753     0.000     0.000     0.000     0.000     0.000     0.000     0.000     0.000     0.000     0.000     0.000     0.000     0.000     0.000  0.000E+00 0.000E+00 0.000E+00 0.000E+00 0.000E+00 0.000E+00 0.000E+00 0.000E+00 0.000E+00 0.000E+00 0.000E+00 0.000E+00 0.000E+00     0
BIGSUB 132        0  6.0.73705E+02     0.000     0.000  1104.446    59.717     3.744     0.000     0.000     0.000     0.000     0.000     0.000     0.000     0.000     0.000     0.000     0.000     0.000     0.000  0.000E+00 0.000E+00 0.000E+00 0.000E+00 0.000E+00 0.000E+00 0.000E+00 0.000E+00 0.000E+00 0.000E+00 0.000E+00 0.000E+00 0.000E+00     0
BIGSUB 133        0  6.0.39979E+02     0.000     0.000  1124.936    91.262     3.985     0.000     0.000     0.000     0.000     0.000     0.000     0.000     0.000     0.000     0.000     0.000     0.000     0.000  0.000E+00 0.000E+00 0.000E+00 0.000E+00 0.000E+00 0.000E+00 0.000E+00 0.000E+00 0.000E+00 0.000E+00 0.000E+00 0.000E+00 0.000E+00     0
