1
    SWAT Dec 11 2014    VER 2012/Rev 635                                                                 0/ 0/   0      0: 0: 0

    General Input/Output section (file.cio):                                        
    2020/9/9 0:00:00 ARCGIS-SWAT interface AV                                       
                                                                                    


       SUB      GIS  MON    AREAkm2  PRECIPmm SNOMELTmm     PETmm      ETmm      SWmm    PERCmm    SURQmm    GW_Qmm    WYLDmm  SYLDt/ha ORGNkg/ha ORGPkg/haNSURQkg/ha SOLPkg/ha SEDPkg/ha LAT Q(mm)LATNO3kg/hGWNO3kg/haCHOLAmic/LCBODU mg/L DOXQ mg/L TNO3kg/ha   HM_SURQ    HM_LAT   HM_PERC  HM_PLANT     HM_GW LabHM_ERONLabHM_ERO   HM_ATMO   HM_WETH    HM_AGR
