1
    SWAT Dec 11 2014    VER 2012/Rev 635                                                                 0/ 0/   0      0: 0: 0

    General Input/Output section (file.cio):                                        
    2020/9/9 0:00:00 ARCGIS-SWAT interface AV                                       
                                                                                    
         Number of years in run:    6
         Area of watershed:     4246.146 km2
1
    SWAT Dec 11 2014    VER 2012/Rev 635                                            

    General Input/Output section (file.cio):                                        
    2020/9/9 0:00:00 ARCGIS-SWAT interface AV                                       
                                                                                    
Annual Summary for Watershed in year    1 of simulation

UNIT                                    PERCO    TILE                           WATER     SED     NO3     NO3     NO3     NO3        N       P       P
TIME     PREC    SURQ    LATQ     GWQ    LATE       Q     SW       ET     PET   YIELD   YIELD    SURQ    LATQ    PERC    CROP  ORGANIC SOLUBLE ORGANIC TILENO3
         (mm)    (mm)    (mm)    (mm)    (mm)    (mm)    (mm)    (mm)    (mm)    (mm)    (mm)   ------------------(kg nutrient/ha)-------------------- (kg/ha)
1
    SWAT Dec 11 2014    VER 2012/Rev 635                                            

    General Input/Output section (file.cio):                                        
    2020/9/9 0:00:00 ARCGIS-SWAT interface AV                                       
                                                                                    
Annual Summary for Watershed in year    2 of simulation

UNIT                                    PERCO    TILE                           WATER     SED     NO3     NO3     NO3     NO3        N       P       P
TIME     PREC    SURQ    LATQ     GWQ    LATE       Q     SW       ET     PET   YIELD   YIELD    SURQ    LATQ    PERC    CROP  ORGANIC SOLUBLE ORGANIC TILENO3
         (mm)    (mm)    (mm)    (mm)    (mm)    (mm)    (mm)    (mm)    (mm)    (mm)    (mm)   ------------------(kg nutrient/ha)-------------------- (kg/ha)
1
    SWAT Dec 11 2014    VER 2012/Rev 635                                            

    General Input/Output section (file.cio):                                        
    2020/9/9 0:00:00 ARCGIS-SWAT interface AV                                       
                                                                                    
Annual Summary for Watershed in year    3 of simulation

UNIT                                    PERCO    TILE                           WATER     SED     NO3     NO3     NO3     NO3        N       P       P
TIME     PREC    SURQ    LATQ     GWQ    LATE       Q     SW       ET     PET   YIELD   YIELD    SURQ    LATQ    PERC    CROP  ORGANIC SOLUBLE ORGANIC TILENO3
         (mm)    (mm)    (mm)    (mm)    (mm)    (mm)    (mm)    (mm)    (mm)    (mm)    (mm)   ------------------(kg nutrient/ha)-------------------- (kg/ha)
    1   83.12   15.96    5.37    3.77   28.01    0.00  113.03   15.92   27.40   25.54    0.62    0.01    0.02    0.96    0.00     0.51    0.00    0.07    0.00
    2   95.72   29.82    6.67   14.62   31.27    0.00  116.10   23.56   36.07   51.65    2.23    0.01    0.02    0.85    0.00     1.47    0.00    0.20    0.00
    3  174.78   56.02   14.02   33.67   65.50    0.00  114.63   38.23   69.61  104.62    5.97    0.01    0.03    1.30    0.00     3.47    0.01    0.46    0.00
    4  229.16   82.50   14.90   41.66   68.41    0.00  116.67   57.32  100.69  140.11   13.13    0.61    0.03    1.34    2.55     5.77    0.01    0.75    0.00
    5  327.92  140.64   21.89   57.48   93.89    0.00  114.15   70.63  110.26  222.03   20.49    0.54    0.08    3.79   11.69     5.03    0.01    0.66    0.00
    6  183.43   66.35   14.71   65.61   36.79    0.00  104.58   78.02  122.63  148.94    4.62    0.04    0.03    0.53    2.48     0.61    0.00    0.08    0.00
    7  160.15   69.42   10.75   51.36   17.92    0.00   82.68   87.03  164.16  133.92    1.47    0.06    0.02    0.11    4.75     0.29    0.00    0.04    0.00
    8   75.64    5.50    5.19   30.98    1.07    0.00   80.81   69.03  135.59   43.82    0.07    0.01    0.01    0.01    0.66     0.02    0.00    0.00    0.00
    9   96.93   23.39    4.02   10.71    4.66    0.00   98.73   47.37  108.69   39.82    0.27    0.05    0.00    0.08    0.14     0.13    0.00    0.03    0.00
   10   44.13    6.50    2.27    4.01    1.08    0.00  106.15   28.17   82.59   14.16    0.17    0.01    0.00    0.03    0.01     0.04    0.00    0.01    0.00
   11  136.39   34.65    9.54    8.50   52.16    0.00  116.40   25.98   46.05   53.80    1.02    0.04    0.02    1.19    0.00     0.23    0.01    0.05    0.00
   12   75.32   13.26    7.42   23.46   35.08    0.00  116.46   19.05   32.72   45.36    0.52    0.01    0.02    0.84    0.00     0.16    0.00    0.03    0.00

 2012 1682.69  544.02  116.76  345.83  435.82    0.00  116.46  560.30 1036.45 1023.76   50.56    1.38    0.28   11.03   22.28    17.74    0.05    2.38    0.00
1
    SWAT Dec 11 2014    VER 2012/Rev 635                                            

    General Input/Output section (file.cio):                                        
    2020/9/9 0:00:00 ARCGIS-SWAT interface AV                                       
                                                                                    
Annual Summary for Watershed in year    4 of simulation

UNIT                                    PERCO    TILE                           WATER     SED     NO3     NO3     NO3     NO3        N       P       P
TIME     PREC    SURQ    LATQ     GWQ    LATE       Q     SW       ET     PET   YIELD   YIELD    SURQ    LATQ    PERC    CROP  ORGANIC SOLUBLE ORGANIC TILENO3
         (mm)    (mm)    (mm)    (mm)    (mm)    (mm)    (mm)    (mm)    (mm)    (mm)    (mm)   ------------------(kg nutrient/ha)-------------------- (kg/ha)
    1   21.36    0.61    4.84   28.09    5.35    0.00  112.32   19.09   36.23   34.88    0.02    0.00    0.01    0.13    0.00     0.02    0.00    0.00    0.00
    2   89.14   13.68    6.53   21.42   39.51    0.00  115.63   23.43   36.74   42.78    1.09    0.01    0.02    0.89    0.00     0.57    0.00    0.08    0.00
    3  131.01   35.54   10.30   29.02   44.81    0.00  111.04   44.05   87.13   76.22    5.42    0.01    0.02    0.81    0.00     2.54    0.00    0.33    0.00
    4  172.98   70.45    9.83   35.31   36.89    0.00  114.92   50.98   96.16  116.98    9.39    0.84    0.04    0.98    7.49     3.72    0.01    0.49    0.00
    5  173.71   69.18   11.31   37.41   30.81    0.00  104.45   74.37  128.45  119.66    7.79    0.07    0.04    1.32    8.83     2.10    0.00    0.29    0.00
    6  194.55   73.44    7.34   28.88   26.30    0.00  109.46   79.15  138.25  111.22    2.03    0.01    0.01    0.29    3.12     0.42    0.00    0.06    0.00
    7   61.27   17.09    8.08   23.24    2.30    0.00   59.28   91.58  184.46   49.96    0.42    0.05    0.01    0.01    3.91     0.06    0.00    0.01    0.00
    8   92.73   18.55    4.37    9.30    0.16    0.00   67.13   62.49  160.08   33.53    0.17    0.03    0.00    0.01    0.33     0.09    0.00    0.02    0.00
    9   56.97    3.42    3.68    1.81    0.26    0.00   73.11   46.22  110.24    9.92    0.03    0.02    0.00    0.02    0.05     0.02    0.00    0.01    0.00
   10    4.74    0.01    0.92    0.28    0.00    0.00   60.36   19.43   96.35    2.01    0.00    0.00    0.00    0.00    0.00     0.00    0.00    0.00    0.00
   11   91.33   19.04    4.28    0.77    6.23    0.00  101.41   19.33   54.70   24.68    0.50    0.04    0.01    0.23    0.00     0.20    0.00    0.04    0.00
   12   30.78    4.76    3.19    3.23    6.40    0.00  102.61   16.72   44.71   11.69    0.22    0.01    0.01    0.24    0.00     0.08    0.00    0.01    0.00

 2013 1120.57  325.77   74.69  218.77  199.02    0.00  102.61  546.84 1173.52  633.52   27.08    1.09    0.18    4.91   23.73     9.83    0.03    1.33    0.00
1
    SWAT Dec 11 2014    VER 2012/Rev 635                                            

    General Input/Output section (file.cio):                                        
    2020/9/9 0:00:00 ARCGIS-SWAT interface AV                                       
                                                                                    
Annual Summary for Watershed in year    5 of simulation

UNIT                                    PERCO    TILE                           WATER     SED     NO3     NO3     NO3     NO3        N       P       P
TIME     PREC    SURQ    LATQ     GWQ    LATE       Q     SW       ET     PET   YIELD   YIELD    SURQ    LATQ    PERC    CROP  ORGANIC SOLUBLE ORGANIC TILENO3
         (mm)    (mm)    (mm)    (mm)    (mm)    (mm)    (mm)    (mm)    (mm)    (mm)    (mm)   ------------------(kg nutrient/ha)-------------------- (kg/ha)
    1   11.64    0.29    1.13    4.02    0.09    0.00   96.86   17.73   51.45    5.87    0.01    0.00    0.00    0.00    0.00     0.01    0.00    0.00    0.00
    2   94.99   14.42    3.77    3.06   31.13    0.00  116.10   21.53   39.88   21.54    1.66    0.01    0.01    1.28    0.00     0.97    0.00    0.13    0.00
    3  223.00   84.32   15.91   23.31   77.35    0.00  114.80   43.00   74.25  124.21   18.57    0.01    0.05    2.06    0.00     7.52    0.01    0.97    0.00
    4   86.39   13.55    9.63   38.70   22.56    0.00  108.97   50.30   98.85   62.96    1.89    0.50    0.04    0.88    9.11     0.66    0.00    0.09    0.00
    5  291.62  120.13   17.01   42.54   74.01    0.00  111.57   73.42  115.88  181.06   15.72    0.09    0.06    2.88    7.84     3.49    0.01    0.47    0.00
    6  186.71   71.39   12.17   47.31   30.48    0.00  107.94   77.52  122.64  132.55    2.93    0.01    0.02    0.28    2.83     0.49    0.00    0.07    0.00
    7  253.43  114.68   15.72   46.66   48.26    0.00   93.73   89.16  144.85  178.95    3.37    0.13    0.01    0.28    4.48     0.52    0.01    0.07    0.00
    8  141.34   50.29    9.15   39.34   15.98    0.00   93.20   68.68  126.65  100.78    0.73    0.02    0.01    0.07    0.54     0.17    0.00    0.02    0.00
    9   30.43    1.69    3.10   22.83    0.01    0.00   79.75   42.77  111.59   29.32    0.02    0.01    0.00    0.00    0.09     0.01    0.00    0.00    0.00
   10   52.59    6.93    1.10    5.82    0.97    0.00  104.09   18.77  101.49   15.17    0.15    0.05    0.00    0.04    0.00     0.05    0.00    0.01    0.00
   11   73.30   11.45    5.13    3.63   17.96    0.00  116.24   25.84   48.18   21.39    0.30    0.01    0.01    0.54    0.00     0.09    0.00    0.02    0.00
   12   15.58    0.33    3.89    8.93    3.36    0.00  106.85   21.22   44.96   14.13    0.01    0.00    0.01    0.10    0.00     0.00    0.00    0.00    0.00

 2014 1461.03  489.47   97.70  286.15  322.16    0.00  106.85  549.94 1080.67  887.95   45.36    0.85    0.24    8.41   24.90    13.97    0.04    1.85    0.00
1
    SWAT Dec 11 2014    VER 2012/Rev 635                                            

    General Input/Output section (file.cio):                                        
    2020/9/9 0:00:00 ARCGIS-SWAT interface AV                                       
                                                                                    
Annual Summary for Watershed in year    6 of simulation

UNIT                                    PERCO    TILE                           WATER     SED     NO3     NO3     NO3     NO3        N       P       P
TIME     PREC    SURQ    LATQ     GWQ    LATE       Q     SW       ET     PET   YIELD   YIELD    SURQ    LATQ    PERC    CROP  ORGANIC SOLUBLE ORGANIC TILENO3
         (mm)    (mm)    (mm)    (mm)    (mm)    (mm)    (mm)    (mm)    (mm)    (mm)    (mm)   ------------------(kg nutrient/ha)-------------------- (kg/ha)
    1   23.51    0.29    1.14    6.97    0.61    0.00  111.04   17.93   42.37    9.21    0.01    0.00    0.00    0.01    0.00     0.01    0.00    0.00    0.00
    2   89.07   13.57    3.96    3.57   34.39    0.00  117.62   25.70   48.90   21.59    1.47    0.01    0.01    1.16    0.00     0.75    0.00    0.10    0.00
    3  150.55   44.47   13.50   21.15   56.83    0.00  113.63   39.16   61.08   80.03    9.38    0.01    0.04    1.61    0.00     3.75    0.00    0.49    0.00
    4   96.66   31.96    9.00   35.65   20.80    0.00  104.41   47.73  100.25   77.78    5.16    0.53    0.03    0.56    7.08     2.17    0.00    0.29    0.00
    5  233.89   81.27   14.14   36.52   62.88    0.00  109.60   65.36  103.34  133.30   10.33    0.84    0.05    2.19   10.23     2.55    0.00    0.35    0.00
    6  250.60  112.13   17.61   45.49   61.67    0.00   92.48   76.11  126.14  176.86    7.90    0.01    0.03    1.46    2.90     1.16    0.01    0.16    0.00
    7  118.88   27.98    8.08   45.25   11.09    0.00   94.65   71.51  132.26   83.20    0.42    0.06    0.01    0.05    4.78     0.11    0.00    0.01    0.00
    8   86.86   26.35    5.04   27.62    2.51    0.00   84.84   66.12  145.76   60.75    0.34    0.03    0.01    0.03    0.68     0.11    0.00    0.01    0.00
    9   73.11   13.31    2.80    9.28    0.87    0.00   97.72   44.10  109.62   26.79    0.14    0.04    0.00    0.03    0.12     0.11    0.00    0.03    0.00
   10   53.84    7.52    3.16    3.46    4.04    0.00  105.72   32.23   94.04   15.27    0.08    0.05    0.01    0.10    0.01     0.05    0.00    0.01    0.00
   11  154.05   43.83   11.36   11.28   60.10    0.00  115.48   25.16   41.01   67.47    1.15    0.03    0.03    1.75    0.00     0.34    0.01    0.06    0.00
   12   79.18   18.65    9.26   32.95   33.98    0.00  113.33   20.92   34.51   62.14    0.78    0.02    0.02    0.84    0.00     0.20    0.00    0.03    0.00

 2015 1410.20  421.31   99.04  279.18  349.75    0.00  113.33  532.02 1039.26  814.40   37.16    1.62    0.25    9.80   25.80    11.32    0.04    1.55    0.00
    1    0.13    0.00    0.12    1.10    0.00    0.00  112.83    0.67    1.53    1.26    0.00    0.00    0.00    0.00    0.00     0.00    0.00    0.00    0.00

 2015    0.13    0.00    0.12    1.10    0.00    0.00  112.83    0.67    1.53    1.26    0.00    0.00    0.00    0.00    0.00     0.00    0.00    0.00    0.00
1
    SWAT Dec 11 2014    VER 2012/Rev 635                                            

    General Input/Output section (file.cio):                                        
    2020/9/9 0:00:00 ARCGIS-SWAT interface AV                                       
                                                                                    
    FINAL VALUES

1
    SWAT Dec 11 2014    VER 2012/Rev 635                                            

    General Input/Output section (file.cio):                                        
    2020/9/9 0:00:00 ARCGIS-SWAT interface AV                                       
                                                                                    
                                            Average Plant Values (kg/ha)

  HRU       1 SUB   1 FRST  Yld =  2501.1 BIOM =   4518.9
  HRU       2 SUB   1 FRST  Yld =  2510.3 BIOM =   4541.6
  HRU       3 SUB   1 FRST  Yld =  2527.9 BIOM =   4563.1
  HRU       4 SUB   1 FRST  Yld =  3824.0 BIOM =   6900.4
  HRU       5 SUB   1 FRST  Yld =  3785.8 BIOM =   6820.8
  HRU       6 SUB   1 FRST  Yld =  3785.8 BIOM =   6825.2
  HRU       7 SUB   1 FRST  Yld =  2932.6 BIOM =   5265.2
  HRU       8 SUB   1 FRST  Yld =  2841.4 BIOM =   5110.7
  HRU       9 SUB   1 FRST  Yld =  2883.4 BIOM =   5179.8
  HRU      10 SUB   1 FRST  Yld =  3192.7 BIOM =   5733.9
  HRU      11 SUB   1 FRST  Yld =  3167.5 BIOM =   5689.1
  HRU      12 SUB   1 FRST  Yld =  3237.5 BIOM =   5815.3
  HRU      13 SUB   1 FRST  Yld =  1973.0 BIOM =   3568.2
  HRU      14 SUB   1 FRST  Yld =  2042.9 BIOM =   3683.9
  HRU      15 SUB   1 FRST  Yld =  1998.8 BIOM =   3609.8
  HRU      16 SUB   1 PAST  Yld =     7.0 BIOM =   1366.5
  HRU      17 SUB   1 PAST  Yld =     6.8 BIOM =   1422.0
  HRU      18 SUB   1 PAST  Yld =     6.9 BIOM =   1615.2
  HRU      19 SUB   1 PAST  Yld =     5.6 BIOM =   1159.8
  HRU      20 SUB   1 PAST  Yld =     6.0 BIOM =   1150.2
  HRU      21 SUB   1 PAST  Yld =     5.5 BIOM =   1275.4
  HRU      22 SUB   1 PAST  Yld =     4.2 BIOM =    700.8
  HRU      23 SUB   1 PAST  Yld =     4.8 BIOM =    694.2
  HRU      24 SUB   1 PAST  Yld =     4.4 BIOM =    674.5
  HRU      25 SUB   2 RICE  Yld =  3173.4 BIOM =   8213.0
  HRU      26 SUB   2 RICE  Yld =  3171.8 BIOM =   8209.2
  HRU      27 SUB   2 RICE  Yld =  3191.1 BIOM =   8258.6
  HRU      28 SUB   2 RICE  Yld =  3170.2 BIOM =   8204.4
  HRU      29 SUB   2 RICE  Yld =  3169.7 BIOM =   8203.1
  HRU      30 SUB   2 RICE  Yld =  3173.4 BIOM =   8212.4
  HRU      31 SUB   2 RICE  Yld =  3176.9 BIOM =   8221.8
  HRU      32 SUB   2 RICE  Yld =  3179.7 BIOM =   8228.8
  HRU      33 SUB   2 AGRC  Yld =  3768.0 BIOM =  12170.6
  HRU      34 SUB   2 AGRC  Yld =  3734.0 BIOM =  12060.9
  HRU      35 SUB   2 AGRC  Yld =  3775.1 BIOM =  12193.5
  HRU      36 SUB   2 AGRC  Yld =  3772.9 BIOM =  12186.4
  HRU      37 SUB   2 AGRC  Yld =  3777.3 BIOM =  12200.7
  HRU      38 SUB   2 FRST  Yld =  2652.5 BIOM =   4765.6
  HRU      39 SUB   2 FRST  Yld =  2555.7 BIOM =   4597.9
  HRU      40 SUB   2 FRST  Yld =  2485.6 BIOM =   4481.7
  HRU      41 SUB   2 FRST  Yld =  2505.3 BIOM =   4525.6
  HRU      42 SUB   2 FRST  Yld =  2531.5 BIOM =   4569.0
  HRU      43 SUB   2 FRST  Yld =  2513.4 BIOM =   4546.7
  HRU      44 SUB   2 FRST  Yld =  3786.1 BIOM =   6825.7
  HRU      45 SUB   2 FRST  Yld =  3824.7 BIOM =   6901.4
  HRU      46 SUB   2 FRST  Yld =  3786.8 BIOM =   6822.3
  HRU      47 SUB   2 FRST  Yld =  2885.6 BIOM =   5183.4
  HRU      48 SUB   2 FRST  Yld =  2841.7 BIOM =   5111.1
  HRU      49 SUB   2 FRST  Yld =  2940.0 BIOM =   5278.1
  HRU      50 SUB   2 FRST  Yld =  3185.9 BIOM =   5721.5
  HRU      51 SUB   2 FRST  Yld =  3164.8 BIOM =   5684.3
  HRU      52 SUB   2 FRST  Yld =  3233.9 BIOM =   5809.3
  HRU      53 SUB   2 FRST  Yld =  5369.2 BIOM =   9627.1
  HRU      54 SUB   2 FRST  Yld =  5266.9 BIOM =   9448.9
  HRU      55 SUB   2 FRST  Yld =  5478.7 BIOM =   9821.2
  HRU      56 SUB   2 FRST  Yld =  2421.3 BIOM =   4353.4
  HRU      57 SUB   2 FRST  Yld =  2472.2 BIOM =   4440.1
  HRU      58 SUB   2 FRST  Yld =  2520.9 BIOM =   4526.3
  HRU      59 SUB   2 PAST  Yld =     5.1 BIOM =    998.6
  HRU      60 SUB   2 PAST  Yld =     5.5 BIOM =    979.9
  HRU      61 SUB   2 PAST  Yld =     6.0 BIOM =   1001.4
  HRU      62 SUB   2 PAST  Yld =     5.5 BIOM =   1290.1
  HRU      63 SUB   2 PAST  Yld =     5.6 BIOM =   1178.4
  HRU      64 SUB   2 PAST  Yld =     6.0 BIOM =   1162.0
  HRU      65 SUB   2 PAST  Yld =     7.4 BIOM =   1656.3
  HRU      66 SUB   2 PAST  Yld =     7.3 BIOM =   1715.3
  HRU      67 SUB   3 AGRC  Yld =  3772.2 BIOM =  12184.2
  HRU      68 SUB   3 AGRC  Yld =  3756.0 BIOM =  12131.9
  HRU      69 SUB   3 AGRC  Yld =  3759.0 BIOM =  12141.6
  HRU      70 SUB   3 AGRC  Yld =  3774.2 BIOM =  12190.7
  HRU      71 SUB   3 AGRC  Yld =  3768.0 BIOM =  12170.5
  HRU      72 SUB   3 AGRC  Yld =  3765.6 BIOM =  12162.8
  HRU      73 SUB   3 FRST  Yld =  2489.7 BIOM =   4489.2
  HRU      74 SUB   3 FRST  Yld =  2639.6 BIOM =   4743.7
  HRU      75 SUB   3 FRST  Yld =  2553.4 BIOM =   4595.3
  HRU      76 SUB   3 FRST  Yld =  2502.2 BIOM =   4521.1
  HRU      77 SUB   3 FRST  Yld =  2528.6 BIOM =   4564.4
  HRU      78 SUB   3 FRST  Yld =  2509.6 BIOM =   4540.3
  HRU      79 SUB   3 FRST  Yld =  2933.7 BIOM =   5267.1
  HRU      80 SUB   3 FRST  Yld =  2886.1 BIOM =   5184.8
  HRU      81 SUB   3 FRST  Yld =  2842.1 BIOM =   5112.0
  HRU      82 SUB   3 FRST  Yld =  3236.6 BIOM =   5813.4
  HRU      83 SUB   3 FRST  Yld =  3163.7 BIOM =   5682.5
  HRU      84 SUB   3 FRST  Yld =  3187.6 BIOM =   5724.9
  HRU      85 SUB   3 FRST  Yld =  1972.0 BIOM =   3566.4
  HRU      86 SUB   3 FRST  Yld =  2042.5 BIOM =   3683.4
  HRU      87 SUB   3 FRST  Yld =  1998.1 BIOM =   3608.8
  HRU      88 SUB   3 PAST  Yld =     4.7 BIOM =    942.2
  HRU      89 SUB   3 PAST  Yld =     4.7 BIOM =    862.2
  HRU      90 SUB   3 PAST  Yld =     5.0 BIOM =    861.3
  HRU      91 SUB   4 RICE  Yld =  3194.0 BIOM =   8260.5
  HRU      92 SUB   4 RICE  Yld =  3172.0 BIOM =   8204.0
  HRU      93 SUB   4 RICE  Yld =  3174.3 BIOM =   8209.7
  HRU      94 SUB   4 RICE  Yld =  3166.5 BIOM =   8188.2
  HRU      95 SUB   4 RICE  Yld =  3173.4 BIOM =   8206.0
  HRU      96 SUB   4 RICE  Yld =  3182.7 BIOM =   8230.2
  HRU      97 SUB   4 AGRC  Yld =  3771.5 BIOM =  12181.9
  HRU      98 SUB   4 AGRC  Yld =  3773.9 BIOM =  12189.7
  HRU      99 SUB   4 AGRC  Yld =  3733.7 BIOM =  12060.1
  HRU     100 SUB   4 AGRC  Yld =  3756.7 BIOM =  12134.3
  HRU     101 SUB   4 AGRC  Yld =  3772.1 BIOM =  12183.8
  HRU     102 SUB   4 AGRC  Yld =  3759.0 BIOM =  12141.6
  HRU     103 SUB   4 AGRC  Yld =  3764.2 BIOM =  12158.4
  HRU     104 SUB   4 AGRC  Yld =  3773.8 BIOM =  12189.3
  HRU     105 SUB   4 AGRC  Yld =  3767.4 BIOM =  12168.6
  HRU     106 SUB   4 FRST  Yld =  2551.9 BIOM =   4592.0
  HRU     107 SUB   4 FRST  Yld =  2635.8 BIOM =   4736.7
  HRU     108 SUB   4 FRST  Yld =  2489.0 BIOM =   4488.1
  HRU     109 SUB   4 FRST  Yld =  2502.0 BIOM =   4520.8
  HRU     110 SUB   4 FRST  Yld =  2527.6 BIOM =   4562.8
  HRU     111 SUB   4 FRST  Yld =  2512.6 BIOM =   4545.7
  HRU     112 SUB   4 FRST  Yld =  3181.4 BIOM =   5713.9
  HRU     113 SUB   4 FRST  Yld =  3232.6 BIOM =   5806.9
  HRU     114 SUB   4 FRST  Yld =  3160.7 BIOM =   5677.3
  HRU     115 SUB   4 PAST  Yld =     4.7 BIOM =    950.7
  HRU     116 SUB   4 PAST  Yld =     5.0 BIOM =    885.5
  HRU     117 SUB   4 PAST  Yld =     4.8 BIOM =    881.4
  HRU     118 SUB   4 BERM  Yld = 15018.7 BIOM =  21459.1
  HRU     119 SUB   4 BERM  Yld = 16820.5 BIOM =  24077.0
  HRU     120 SUB   4 BERM  Yld = 14180.8 BIOM =  20237.0
  HRU     121 SUB   4 BERM  Yld = 14237.6 BIOM =  20321.6
  HRU     122 SUB   4 BERM  Yld = 15142.6 BIOM =  21639.9
  HRU     123 SUB   5 AGRC  Yld =  3742.8 BIOM =  12089.3
  HRU     124 SUB   5 AGRC  Yld =  3747.0 BIOM =  12102.8
  HRU     125 SUB   5 AGRC  Yld =  3751.0 BIOM =  12115.8
  HRU     126 SUB   5 AGRC  Yld =  3783.5 BIOM =  12220.7
  HRU     127 SUB   5 AGRC  Yld =  3782.7 BIOM =  12218.2
  HRU     128 SUB   5 AGRC  Yld =  3782.2 BIOM =  12216.6
  HRU     129 SUB   5 FRST  Yld =  2552.3 BIOM =   4591.1
  HRU     130 SUB   5 FRST  Yld =  2514.0 BIOM =   4528.8
  HRU     131 SUB   5 FRST  Yld =  2513.8 BIOM =   4535.0
  HRU     132 SUB   5 FRST  Yld =  2876.2 BIOM =   5162.8
  HRU     133 SUB   5 FRST  Yld =  2944.9 BIOM =   5280.8
  HRU     134 SUB   5 FRST  Yld =  3002.6 BIOM =   5381.4
  HRU     135 SUB   5 FRST  Yld =  3222.7 BIOM =   5781.4
  HRU     136 SUB   5 FRST  Yld =  3227.4 BIOM =   5788.6
  HRU     137 SUB   5 FRST  Yld =  3311.8 BIOM =   5942.9
  HRU     138 SUB   5 FRST  Yld =  1974.7 BIOM =   3563.1
  HRU     139 SUB   5 FRST  Yld =  2063.0 BIOM =   3707.0
  HRU     140 SUB   5 FRST  Yld =  2007.6 BIOM =   3613.9
  HRU     141 SUB   5 PAST  Yld =     6.9 BIOM =    891.8
  HRU     142 SUB   5 PAST  Yld =     6.6 BIOM =    953.3
  HRU     143 SUB   5 PAST  Yld =     6.6 BIOM =    888.2
  HRU     144 SUB   5 PAST  Yld =     6.8 BIOM =    722.1
  HRU     145 SUB   5 PAST  Yld =     6.4 BIOM =    699.0
  HRU     146 SUB   5 PAST  Yld =     6.2 BIOM =    738.1
  HRU     147 SUB   6 RICE  Yld =  3175.6 BIOM =   8212.5
  HRU     148 SUB   6 RICE  Yld =  3172.9 BIOM =   8205.6
  HRU     149 SUB   6 RICE  Yld =  3174.9 BIOM =   8209.9
  HRU     150 SUB   6 RICE  Yld =  3175.1 BIOM =   8210.5
  HRU     151 SUB   6 FRST  Yld =  2502.4 BIOM =   4521.7
  HRU     152 SUB   6 FRST  Yld =  2513.4 BIOM =   4547.2
  HRU     153 SUB   6 FRST  Yld =  2529.7 BIOM =   4566.4
  HRU     154 SUB   6 FRST  Yld =  3195.1 BIOM =   5750.8
  HRU     155 SUB   6 FRST  Yld =  3419.3 BIOM =   6137.3
  HRU     156 SUB   6 FRST  Yld =  3301.6 BIOM =   5931.5
  HRU     157 SUB   6 FRST  Yld =  2883.7 BIOM =   5180.5
  HRU     158 SUB   6 FRST  Yld =  2936.9 BIOM =   5272.7
  HRU     159 SUB   6 FRST  Yld =  2839.9 BIOM =   5108.1
  HRU     160 SUB   6 FRST  Yld =  3164.3 BIOM =   5683.5
  HRU     161 SUB   6 FRST  Yld =  3160.1 BIOM =   5676.0
  HRU     162 SUB   6 FRST  Yld =  1998.2 BIOM =   3608.8
  HRU     163 SUB   6 FRST  Yld =  2043.9 BIOM =   3685.9
  HRU     164 SUB   6 FRST  Yld =  1971.5 BIOM =   3565.6
  HRU     165 SUB   7 AGRC  Yld =  3774.2 BIOM =  12190.4
  HRU     166 SUB   7 FRST  Yld =  3252.6 BIOM =   5842.0
  HRU     167 SUB   7 FRST  Yld =  3162.1 BIOM =   5679.8
  HRU     168 SUB   7 FRST  Yld =  3154.9 BIOM =   5666.9
  HRU     169 SUB   8 RICE  Yld =  3172.5 BIOM =   8210.8
  HRU     170 SUB   8 RICE  Yld =  3195.3 BIOM =   8269.6
  HRU     171 SUB   8 RICE  Yld =  3172.9 BIOM =   8211.8
  HRU     172 SUB   8 RICE  Yld =  3169.8 BIOM =   8202.4
  HRU     173 SUB   8 RICE  Yld =  3163.4 BIOM =   8185.9
  HRU     174 SUB   8 RICE  Yld =  3173.3 BIOM =   8211.5
  HRU     175 SUB   8 AGRC  Yld =  3773.8 BIOM =  12189.2
  HRU     176 SUB   8 AGRC  Yld =  3771.5 BIOM =  12182.0
  HRU     177 SUB   8 AGRC  Yld =  3732.7 BIOM =  12056.8
  HRU     178 SUB   8 AGRC  Yld =  3756.7 BIOM =  12134.1
  HRU     179 SUB   8 AGRC  Yld =  3771.4 BIOM =  12181.7
  HRU     180 SUB   8 AGRC  Yld =  3759.2 BIOM =  12142.1
  HRU     181 SUB   8 AGRC  Yld =  3773.9 BIOM =  12189.7
  HRU     182 SUB   8 FRST  Yld =  2550.4 BIOM =   4589.3
  HRU     183 SUB   8 FRST  Yld =  2630.4 BIOM =   4727.2
  HRU     184 SUB   8 FRST  Yld =  2487.3 BIOM =   4485.0
  HRU     185 SUB   8 FRST  Yld =  2508.2 BIOM =   4537.9
  HRU     186 SUB   8 FRST  Yld =  2501.0 BIOM =   4519.6
  HRU     187 SUB   8 FRST  Yld =  2526.6 BIOM =   4561.2
  HRU     188 SUB   8 FRST  Yld =  3232.2 BIOM =   5805.8
  HRU     189 SUB   8 FRST  Yld =  3150.3 BIOM =   5658.5
  HRU     190 SUB   8 FRST  Yld =  3160.2 BIOM =   5676.3
  HRU     191 SUB   9 RICE  Yld =  3171.5 BIOM =   8203.1
  HRU     192 SUB   9 RICE  Yld =  3198.4 BIOM =   8272.3
  HRU     193 SUB   9 RICE  Yld =  3172.8 BIOM =   8206.5
  HRU     194 SUB   9 RICE  Yld =  3138.9 BIOM =   8117.2
  HRU     195 SUB   9 RICE  Yld =  3142.1 BIOM =   8125.4
  HRU     196 SUB   9 AGRC  Yld =  3723.0 BIOM =  12025.6
  HRU     197 SUB   9 AGRC  Yld =  3756.4 BIOM =  12133.0
  HRU     198 SUB   9 AGRC  Yld =  3735.4 BIOM =  12065.7
  HRU     199 SUB   9 FRST  Yld =  2505.9 BIOM =   4508.3
  HRU     200 SUB   9 FRST  Yld =  2584.2 BIOM =   4640.5
  HRU     201 SUB   9 FRST  Yld =  2515.0 BIOM =   4530.9
  HRU     202 SUB   9 FRST  Yld =  2552.4 BIOM =   4591.5
  HRU     203 SUB   9 FRST  Yld =  2515.9 BIOM =   4538.7
  HRU     204 SUB   9 FRST  Yld =  3225.9 BIOM =   5786.2
  HRU     205 SUB   9 FRST  Yld =  3221.3 BIOM =   5779.0
  HRU     206 SUB   9 FRST  Yld =  3312.5 BIOM =   5944.8
  HRU     207 SUB   9 FRST  Yld =  2005.8 BIOM =   3611.0
  HRU     208 SUB   9 FRST  Yld =  2063.1 BIOM =   3707.2
  HRU     209 SUB   9 FRST  Yld =  1975.8 BIOM =   3565.0
  HRU     210 SUB   9 PAST  Yld =     6.6 BIOM =    954.8
  HRU     211 SUB   9 PAST  Yld =     6.7 BIOM =    889.1
  HRU     212 SUB   9 PAST  Yld =     6.9 BIOM =    892.5
  HRU     213 SUB   9 PAST  Yld =     6.0 BIOM =    697.7
  HRU     214 SUB   9 PAST  Yld =     6.9 BIOM =    702.0
  HRU     215 SUB   9 PAST  Yld =     6.3 BIOM =    670.1
  HRU     216 SUB  10 RICE  Yld =  3198.7 BIOM =   8278.7
  HRU     217 SUB  10 RICE  Yld =  3162.1 BIOM =   8184.5
  HRU     218 SUB  10 RICE  Yld =  3174.4 BIOM =   8216.4
  HRU     219 SUB  10 RICE  Yld =  3183.8 BIOM =   8239.9
  HRU     220 SUB  10 RICE  Yld =  3177.7 BIOM =   8223.9
  HRU     221 SUB  10 RICE  Yld =  3142.4 BIOM =   8131.7
  HRU     222 SUB  10 RICE  Yld =  3138.6 BIOM =   8122.2
  HRU     223 SUB  10 RICE  Yld =  3149.2 BIOM =   8149.6
  HRU     224 SUB  10 AGRC  Yld =  3745.1 BIOM =  12096.8
  HRU     225 SUB  10 AGRC  Yld =  3746.0 BIOM =  12099.5
  HRU     226 SUB  10 AGRC  Yld =  3746.7 BIOM =  12102.1
  HRU     227 SUB  10 AGRC  Yld =  3745.1 BIOM =  12096.8
  HRU     228 SUB  10 AGRC  Yld =  3746.8 BIOM =  12102.1
  HRU     229 SUB  10 AGRC  Yld =  3787.0 BIOM =  12231.9
  HRU     230 SUB  10 AGRC  Yld =  3781.3 BIOM =  12213.7
  HRU     231 SUB  10 FRST  Yld =  2500.8 BIOM =   4499.8
  HRU     232 SUB  10 FRST  Yld =  2684.2 BIOM =   4813.1
  HRU     233 SUB  10 FRST  Yld =  2583.5 BIOM =   4639.0
  HRU     234 SUB  10 FRST  Yld =  2561.4 BIOM =   4608.7
  HRU     235 SUB  10 FRST  Yld =  2517.6 BIOM =   4541.8
  HRU     236 SUB  10 FRST  Yld =  2498.5 BIOM =   4505.3
  HRU     237 SUB  10 FRST  Yld =  3221.3 BIOM =   5779.1
  HRU     238 SUB  10 FRST  Yld =  3226.0 BIOM =   5786.3
  HRU     239 SUB  10 FRST  Yld =  3308.9 BIOM =   5937.9
  HRU     240 SUB  11 RICE  Yld =  3191.1 BIOM =   8258.8
  HRU     241 SUB  11 RICE  Yld =  3173.7 BIOM =   8213.8
  HRU     242 SUB  11 AGRC  Yld =  3775.0 BIOM =  12193.3
  HRU     243 SUB  11 AGRC  Yld =  3767.6 BIOM =  12169.3
  HRU     244 SUB  11 AGRC  Yld =  3733.1 BIOM =  12057.9
  HRU     245 SUB  11 AGRC  Yld =  3762.7 BIOM =  12153.7
  HRU     246 SUB  11 AGRC  Yld =  3776.8 BIOM =  12198.9
  HRU     247 SUB  11 AGRC  Yld =  3778.1 BIOM =  12203.4
  HRU     248 SUB  11 AGRC  Yld =  3782.2 BIOM =  12216.5
  HRU     249 SUB  11 AGRC  Yld =  3770.8 BIOM =  12179.5
  HRU     250 SUB  11 AGRC  Yld =  3734.5 BIOM =  12062.4
  HRU     251 SUB  11 AGRC  Yld =  3775.4 BIOM =  12194.4
  HRU     252 SUB  11 FRST  Yld =  2556.3 BIOM =   4599.5
  HRU     253 SUB  11 FRST  Yld =  2489.3 BIOM =   4488.3
  HRU     254 SUB  11 FRST  Yld =  2665.2 BIOM =   4788.3
  HRU     255 SUB  11 FRST  Yld =  2515.6 BIOM =   4550.6
  HRU     256 SUB  11 FRST  Yld =  2541.8 BIOM =   4587.8
  HRU     257 SUB  11 FRST  Yld =  2522.4 BIOM =   4556.7
  HRU     258 SUB  11 FRST  Yld =  2844.4 BIOM =   5115.8
  HRU     259 SUB  11 FRST  Yld =  2888.4 BIOM =   5188.6
  HRU     260 SUB  11 FRST  Yld =  2944.2 BIOM =   5285.5
  HRU     261 SUB  11 FRST  Yld =  2138.7 BIOM =   3849.4
  HRU     262 SUB  11 FRST  Yld =  2049.8 BIOM =   3700.3
  HRU     263 SUB  11 FRST  Yld =  2086.0 BIOM =   3758.3
  HRU     264 SUB  11 FRST  Yld =  5267.4 BIOM =   9449.8
  HRU     265 SUB  11 FRST  Yld =  5467.8 BIOM =   9801.7
  HRU     266 SUB  11 FRST  Yld =  5359.1 BIOM =   9609.4
  HRU     267 SUB  11 FRST  Yld =  2422.2 BIOM =   4355.1
  HRU     268 SUB  11 FRST  Yld =  2519.5 BIOM =   4523.6
  HRU     269 SUB  11 FRST  Yld =  2473.2 BIOM =   4442.1
  HRU     270 SUB  11 BERM  Yld = 14953.6 BIOM =  21364.6
  HRU     271 SUB  11 BERM  Yld = 16638.3 BIOM =  23810.7
  HRU     272 SUB  11 BERM  Yld = 13878.9 BIOM =  19796.4
  HRU     273 SUB  11 BERM  Yld = 16516.4 BIOM =  23629.7
  HRU     274 SUB  11 BERM  Yld = 14866.5 BIOM =  21240.1
  HRU     275 SUB  11 BERM  Yld = 13985.1 BIOM =  19953.9
  HRU     276 SUB  12 RICE  Yld =  3195.6 BIOM =   8265.0
  HRU     277 SUB  12 RICE  Yld =  3199.3 BIOM =   8274.7
  HRU     278 SUB  12 RICE  Yld =  3136.1 BIOM =   8109.9
  HRU     279 SUB  12 RICE  Yld =  3139.3 BIOM =   8118.2
  HRU     280 SUB  12 FRST  Yld =  2685.9 BIOM =   4815.9
  HRU     281 SUB  12 FRST  Yld =  2499.9 BIOM =   4498.1
  HRU     282 SUB  12 FRST  Yld =  2521.3 BIOM =   4532.8
  HRU     283 SUB  12 FRST  Yld =  2514.7 BIOM =   4536.4
  HRU     284 SUB  12 FRST  Yld =  2553.3 BIOM =   4592.6
  HRU     285 SUB  12 FRST  Yld =  2516.8 BIOM =   4532.9
  HRU     286 SUB  12 FRST  Yld =  3336.5 BIOM =   5979.3
  HRU     287 SUB  12 FRST  Yld =  3447.5 BIOM =   6173.9
  HRU     288 SUB  12 FRST  Yld =  3208.1 BIOM =   5759.5
  HRU     289 SUB  12 FRST  Yld =  2874.1 BIOM =   5159.1
  HRU     290 SUB  12 FRST  Yld =  2937.9 BIOM =   5268.5
  HRU     291 SUB  12 FRST  Yld =  3003.6 BIOM =   5383.0
  HRU     292 SUB  12 FRST  Yld =  3227.9 BIOM =   5789.5
  HRU     293 SUB  12 FRST  Yld =  3311.0 BIOM =   5942.5
  HRU     294 SUB  12 FRST  Yld =  3259.0 BIOM =   5845.7
  HRU     295 SUB  12 FRST  Yld =  2062.8 BIOM =   3706.5
  HRU     296 SUB  12 FRST  Yld =  2007.4 BIOM =   3613.6
  HRU     297 SUB  12 FRST  Yld =  1975.1 BIOM =   3563.7
  HRU     298 SUB  12 PAST  Yld =     6.6 BIOM =    955.3
  HRU     299 SUB  12 PAST  Yld =     6.9 BIOM =    891.0
  HRU     300 SUB  12 PAST  Yld =     6.6 BIOM =    882.0
  HRU     301 SUB  12 PAST  Yld =     6.9 BIOM =    706.2
  HRU     302 SUB  12 PAST  Yld =     6.3 BIOM =    674.0
  HRU     303 SUB  12 PAST  Yld =     6.0 BIOM =    705.1
  HRU     304 SUB  13 RICE  Yld =  3174.0 BIOM =   8215.3
  HRU     305 SUB  13 RICE  Yld =  3198.2 BIOM =   8277.6
  HRU     306 SUB  13 RICE  Yld =  3179.7 BIOM =   8229.9
  HRU     307 SUB  13 RICE  Yld =  3141.1 BIOM =   8128.4
  HRU     308 SUB  13 RICE  Yld =  3144.7 BIOM =   8137.9
  HRU     309 SUB  13 FRST  Yld =  2691.5 BIOM =   4825.7
  HRU     310 SUB  13 FRST  Yld =  2581.2 BIOM =   4635.2
  HRU     311 SUB  13 FRST  Yld =  2498.5 BIOM =   4495.8
  HRU     312 SUB  13 FRST  Yld =  3224.2 BIOM =   5784.0
  HRU     313 SUB  13 FRST  Yld =  3321.3 BIOM =   5959.9
  HRU     314 SUB  13 FRST  Yld =  3223.0 BIOM =   5781.2
  HRU     315 SUB  14 RICE  Yld =  3074.0 BIOM =   7942.3
  HRU     316 SUB  14 RICE  Yld =  3080.8 BIOM =   7960.0
  HRU     317 SUB  14 RICE  Yld =  3097.5 BIOM =   8002.6
  HRU     318 SUB  14 RICE  Yld =  3092.7 BIOM =   7990.3
  HRU     319 SUB  14 RICE  Yld =  3108.0 BIOM =   8028.8
  HRU     320 SUB  14 RICE  Yld =  3109.9 BIOM =   8033.6
  HRU     321 SUB  14 FRST  Yld =  1143.0 BIOM =   5684.3
  HRU     322 SUB  14 FRST  Yld =  1131.3 BIOM =   5555.4
  HRU     323 SUB  14 FRST  Yld =  1127.4 BIOM =   5421.7
  HRU     324 SUB  14 FRST  Yld =  1135.8 BIOM =   5621.2
  HRU     325 SUB  14 FRST  Yld =  1126.2 BIOM =   5291.0
  HRU     326 SUB  14 FRST  Yld =  1526.2 BIOM =   7993.6
  HRU     327 SUB  14 FRST  Yld =  1581.1 BIOM =   8364.7
  HRU     328 SUB  14 FRST  Yld =  1519.4 BIOM =   7918.2
  HRU     329 SUB  14 FRST  Yld =   901.4 BIOM =   4340.3
  HRU     330 SUB  14 PAST  Yld =     8.1 BIOM =    972.3
  HRU     331 SUB  14 PAST  Yld =     8.0 BIOM =    881.0
  HRU     332 SUB  14 PAST  Yld =     8.3 BIOM =    883.4
  HRU     333 SUB  14 PAST  Yld =    11.5 BIOM =   1736.7
  HRU     334 SUB  14 PAST  Yld =    11.9 BIOM =   1874.7
  HRU     335 SUB  15 RICE  Yld =  3081.7 BIOM =   7969.5
  HRU     336 SUB  15 RICE  Yld =  3102.4 BIOM =   8022.9
  HRU     337 SUB  15 RICE  Yld =  3073.7 BIOM =   7949.0
  HRU     338 SUB  15 RICE  Yld =  3072.3 BIOM =   7943.8
  HRU     339 SUB  15 RICE  Yld =  3073.1 BIOM =   7945.8
  HRU     340 SUB  15 FRST  Yld =  3400.7 BIOM =   4858.1
  HRU     341 SUB  15 FRST  Yld =  3256.9 BIOM =   4652.8
  HRU     342 SUB  15 FRST  Yld =  3154.1 BIOM =   4505.9
  HRU     343 SUB  15 FRST  Yld =  4022.5 BIOM =   5746.4
  HRU     344 SUB  15 FRST  Yld =  4069.1 BIOM =   5812.9
  HRU     345 SUB  16 FRST  Yld =  4021.7 BIOM =   5745.4
  HRU     346 SUB  17 RICE  Yld =  3096.4 BIOM =   8007.2
  HRU     347 SUB  17 RICE  Yld =  3095.7 BIOM =   8005.0
  HRU     348 SUB  17 RICE  Yld =  3089.1 BIOM =   7988.3
  HRU     349 SUB  17 RICE  Yld =  3047.9 BIOM =   7880.8
  HRU     350 SUB  17 RICE  Yld =  3073.4 BIOM =   7946.8
  HRU     351 SUB  17 RICE  Yld =  3071.5 BIOM =   7941.6
  HRU     352 SUB  17 AGRC  Yld =  3749.5 BIOM =  12136.8
  HRU     353 SUB  17 AGRC  Yld =  3745.1 BIOM =  12122.6
  HRU     354 SUB  17 FRST  Yld =  3277.0 BIOM =   4681.4
  HRU     355 SUB  17 FRST  Yld =  3161.2 BIOM =   4515.9
  HRU     356 SUB  17 FRST  Yld =  3383.7 BIOM =   4833.9
  HRU     357 SUB  17 FRST  Yld =  4130.2 BIOM =   5900.3
  HRU     358 SUB  17 FRST  Yld =  4049.4 BIOM =   5784.8
  HRU     359 SUB  17 FRST  Yld =  4013.5 BIOM =   5733.6
  HRU     360 SUB  18 RICE  Yld =  3196.4 BIOM =   8272.8
  HRU     361 SUB  18 RICE  Yld =  3181.8 BIOM =   8235.2
  HRU     362 SUB  18 AGRC  Yld =  3745.4 BIOM =  12097.7
  HRU     363 SUB  18 AGRC  Yld =  3754.9 BIOM =  12128.4
  HRU     364 SUB  18 AGRC  Yld =  3744.7 BIOM =  12095.4
  HRU     365 SUB  18 AGRC  Yld =  3748.7 BIOM =  12108.3
  HRU     366 SUB  18 AGRC  Yld =  3746.4 BIOM =  12101.1
  HRU     367 SUB  18 AGRC  Yld =  3743.4 BIOM =  12091.3
  HRU     368 SUB  18 AGRC  Yld =  3779.2 BIOM =  12206.8
  HRU     369 SUB  18 AGRC  Yld =  3781.3 BIOM =  12213.5
  HRU     370 SUB  18 AGRC  Yld =  3782.2 BIOM =  12216.4
  HRU     371 SUB  18 FRST  Yld =  2588.3 BIOM =   4647.0
  HRU     372 SUB  18 FRST  Yld =  2499.1 BIOM =   4496.7
  HRU     373 SUB  18 FRST  Yld =  2688.8 BIOM =   4820.9
  HRU     374 SUB  18 FRST  Yld =  2516.0 BIOM =   4532.1
  HRU     375 SUB  18 FRST  Yld =  2549.1 BIOM =   4586.1
  HRU     376 SUB  18 FRST  Yld =  2516.7 BIOM =   4540.1
  HRU     377 SUB  18 FRST  Yld =  3310.2 BIOM =   5941.2
  HRU     378 SUB  18 FRST  Yld =  3225.2 BIOM =   5785.0
  HRU     379 SUB  18 FRST  Yld =  3260.6 BIOM =   5849.1
  HRU     380 SUB  19 RICE  Yld =  3077.4 BIOM =   7956.6
  HRU     381 SUB  19 RICE  Yld =  3093.8 BIOM =   7999.2
  HRU     382 SUB  19 RICE  Yld =  3097.0 BIOM =   8007.7
  HRU     383 SUB  19 AGRC  Yld =  3725.8 BIOM =  12060.6
  HRU     384 SUB  19 AGRC  Yld =  3717.7 BIOM =  12034.2
  HRU     385 SUB  19 AGRC  Yld =  3727.0 BIOM =  12064.3
  HRU     386 SUB  19 FRST  Yld =  3154.1 BIOM =   4505.9
  HRU     387 SUB  19 FRST  Yld =  3166.7 BIOM =   4523.8
  HRU     388 SUB  19 FRST  Yld =  3187.4 BIOM =   4553.5
  HRU     389 SUB  19 FRST  Yld =  4684.3 BIOM =   6691.8
  HRU     390 SUB  19 FRST  Yld =  5467.3 BIOM =   7810.4
  HRU     391 SUB  19 FRST  Yld =  5962.6 BIOM =   8518.0
  HRU     392 SUB  19 FRST  Yld =  3903.0 BIOM =   5575.7
  HRU     393 SUB  19 FRST  Yld =  3873.6 BIOM =   5533.7
  HRU     394 SUB  19 FRST  Yld =  3968.4 BIOM =   5669.1
  HRU     395 SUB  20 AGRC  Yld =  3703.3 BIOM =  11987.3
  HRU     396 SUB  20 AGRC  Yld =  3698.1 BIOM =  11970.2
  HRU     397 SUB  20 AGRC  Yld =  3699.8 BIOM =  11975.7
  HRU     398 SUB  20 FRST  Yld =  3181.7 BIOM =   4545.2
  HRU     399 SUB  20 FRST  Yld =  3153.9 BIOM =   4505.5
  HRU     400 SUB  20 FRST  Yld =  3170.7 BIOM =   4529.5
  HRU     401 SUB  20 FRST  Yld =  5443.1 BIOM =   7775.9
  HRU     402 SUB  20 FRST  Yld =  4660.6 BIOM =   6658.0
  HRU     403 SUB  20 FRST  Yld =  5948.6 BIOM =   8497.9
  HRU     404 SUB  20 FRST  Yld =  3619.4 BIOM =   5170.6
  HRU     405 SUB  20 FRST  Yld =  3556.1 BIOM =   5080.2
  HRU     406 SUB  20 FRST  Yld =  3513.0 BIOM =   5018.6
  HRU     407 SUB  20 FRST  Yld =  2651.5 BIOM =   3787.8
  HRU     408 SUB  20 FRST  Yld =  2592.7 BIOM =   3703.9
  HRU     409 SUB  20 FRST  Yld =  2558.7 BIOM =   3655.3
  HRU     410 SUB  20 FRST  Yld =  6829.8 BIOM =   9756.8
  HRU     411 SUB  20 FRST  Yld =  6569.4 BIOM =   9384.8
  HRU     412 SUB  20 FRST  Yld =  6681.6 BIOM =   9545.1
  HRU     413 SUB  20 FRST  Yld =  3107.4 BIOM =   4439.2
  HRU     414 SUB  20 FRST  Yld =  3041.3 BIOM =   4344.7
  HRU     415 SUB  20 FRST  Yld =  2981.9 BIOM =   4259.9
  HRU     416 SUB  21 RICE  Yld =  3102.3 BIOM =   8021.3
  HRU     417 SUB  21 RICE  Yld =  3085.2 BIOM =   7977.2
  HRU     418 SUB  21 RICE  Yld =  3099.0 BIOM =   8013.0
  HRU     419 SUB  21 RICE  Yld =  3058.9 BIOM =   7908.6
  HRU     420 SUB  21 RICE  Yld =  3083.6 BIOM =   7972.4
  HRU     421 SUB  21 RICE  Yld =  3076.2 BIOM =   7953.1
  HRU     422 SUB  21 FRST  Yld =  3172.4 BIOM =   4532.0
  HRU     423 SUB  21 FRST  Yld =  3159.1 BIOM =   4513.0
  HRU     424 SUB  21 FRST  Yld =  3186.8 BIOM =   4552.5
  HRU     425 SUB  21 FRST  Yld =  5977.0 BIOM =   8538.6
  HRU     426 SUB  21 FRST  Yld =  5484.2 BIOM =   7834.5
  HRU     427 SUB  21 FRST  Yld =  4665.0 BIOM =   6664.2
  HRU     428 SUB  21 FRST  Yld =  4745.3 BIOM =   6779.0
  HRU     429 SUB  21 FRST  Yld =  4800.8 BIOM =   6858.2
  HRU     430 SUB  21 FRST  Yld =  4742.8 BIOM =   6775.4
  HRU     431 SUB  21 FRST  Yld =  3552.1 BIOM =   5074.4
  HRU     432 SUB  21 FRST  Yld =  3612.2 BIOM =   5160.3
  HRU     433 SUB  21 FRST  Yld =  3512.5 BIOM =   5017.9
  HRU     434 SUB  21 FRST  Yld =  3839.6 BIOM =   5485.2
  HRU     435 SUB  21 FRST  Yld =  3923.4 BIOM =   5604.9
  HRU     436 SUB  21 FRST  Yld =  3865.6 BIOM =   5522.2
  HRU     437 SUB  21 FRST  Yld =  2498.0 BIOM =   3568.5
  HRU     438 SUB  21 FRST  Yld =  2515.0 BIOM =   3592.9
  HRU     439 SUB  21 FRST  Yld =  2559.7 BIOM =   3656.7
  HRU     440 SUB  21 FRST  Yld =  6842.0 BIOM =   9774.2
  HRU     441 SUB  21 FRST  Yld =  6562.9 BIOM =   9375.5
  HRU     442 SUB  21 FRST  Yld =  6684.0 BIOM =   9548.5
  HRU     443 SUB  21 FRST  Yld =  3096.6 BIOM =   4423.8
  HRU     444 SUB  21 FRST  Yld =  2977.9 BIOM =   4254.1
  HRU     445 SUB  21 FRST  Yld =  3038.4 BIOM =   4340.5
  HRU     446 SUB  21 PAST  Yld =   298.2 BIOM =    946.6
  HRU     447 SUB  21 PAST  Yld =   299.4 BIOM =    937.2
  HRU     448 SUB  21 PAST  Yld =   257.8 BIOM =    847.4
  HRU     449 SUB  21 PAST  Yld =   278.1 BIOM =    862.4
  HRU     450 SUB  21 PAST  Yld =   257.2 BIOM =    830.7
  HRU     451 SUB  22 RICE  Yld =  3043.8 BIOM =   7875.3
  HRU     452 SUB  22 RICE  Yld =  3016.9 BIOM =   7805.6
  HRU     453 SUB  22 RICE  Yld =  3029.9 BIOM =   7839.6
  HRU     454 SUB  22 FRST  Yld =  3713.9 BIOM =   6699.8
  HRU     455 SUB  22 FRST  Yld =  3674.8 BIOM =   6624.0
  HRU     456 SUB  22 FRST  Yld =  3675.4 BIOM =   6620.1
  HRU     457 SUB  22 FRST  Yld =  2832.0 BIOM =   5095.1
  HRU     458 SUB  22 FRST  Yld =  2739.3 BIOM =   4938.9
  HRU     459 SUB  22 FRST  Yld =  2777.6 BIOM =   5001.4
  HRU     460 SUB  22 FRST  Yld =  3027.5 BIOM =   5441.5
  HRU     461 SUB  22 FRST  Yld =  3029.2 BIOM =   5444.7
  HRU     462 SUB  22 FRST  Yld =  1942.9 BIOM =   3515.1
  HRU     463 SUB  22 FRST  Yld =  1934.3 BIOM =   3505.3
  HRU     464 SUB  22 FRST  Yld =  1998.6 BIOM =   3604.8
  HRU     465 SUB  23 RICE  Yld =  3103.6 BIOM =   8018.3
  HRU     466 SUB  23 RICE  Yld =  3088.1 BIOM =   7978.7
  HRU     467 SUB  23 RICE  Yld =  3094.0 BIOM =   7993.5
  HRU     468 SUB  23 RICE  Yld =  3111.3 BIOM =   8037.3
  HRU     469 SUB  23 RICE  Yld =  3120.9 BIOM =   8062.6
  HRU     470 SUB  23 RICE  Yld =  3110.4 BIOM =   8035.0
  HRU     471 SUB  23 AGRC  Yld =  3790.6 BIOM =  12268.7
  HRU     472 SUB  23 AGRC  Yld =  3787.7 BIOM =  12259.4
  HRU     473 SUB  23 AGRC  Yld =  3789.6 BIOM =  12265.7
  HRU     474 SUB  23 AGRC  Yld =  3754.0 BIOM =  12150.7
  HRU     475 SUB  23 AGRC  Yld =  3761.4 BIOM =  12174.8
  HRU     476 SUB  23 FRST  Yld =  1134.0 BIOM =   5619.1
  HRU     477 SUB  23 FRST  Yld =  1126.2 BIOM =   5415.8
  HRU     478 SUB  23 FRST  Yld =  1127.0 BIOM =   5295.9
  HRU     479 SUB  23 FRST  Yld =  1486.9 BIOM =   7435.3
  HRU     480 SUB  23 FRST  Yld =  1419.5 BIOM =   6897.3
  HRU     481 SUB  23 FRST  Yld =  1551.7 BIOM =   7888.1
  HRU     482 SUB  23 FRST  Yld =  1378.2 BIOM =   7227.8
  HRU     483 SUB  23 FRST  Yld =  1306.2 BIOM =   6618.1
  HRU     484 SUB  23 FRST  Yld =  1346.3 BIOM =   6966.0
  HRU     485 SUB  23 FRST  Yld =  1546.9 BIOM =   8130.9
  HRU     486 SUB  23 FRST  Yld =  1521.6 BIOM =   7930.9
  HRU     487 SUB  23 FRST  Yld =  1578.8 BIOM =   8378.1
  HRU     488 SUB  23 FRST  Yld =  1192.9 BIOM =   6435.0
  HRU     489 SUB  23 FRST  Yld =  1146.7 BIOM =   6053.9
  HRU     490 SUB  23 FRST  Yld =  1233.3 BIOM =   6791.5
  HRU     491 SUB  23 PAST  Yld =     7.9 BIOM =    872.4
  HRU     492 SUB  23 PAST  Yld =     8.2 BIOM =    879.4
  HRU     493 SUB  23 PAST  Yld =     7.9 BIOM =    957.2
  HRU     494 SUB  23 PAST  Yld =    14.6 BIOM =   1366.6
  HRU     495 SUB  23 PAST  Yld =    11.1 BIOM =   1386.5
  HRU     496 SUB  23 PAST  Yld =    12.2 BIOM =   1354.6
  HRU     497 SUB  23 PAST  Yld =     9.2 BIOM =   1273.9
  HRU     498 SUB  23 PAST  Yld =     9.6 BIOM =   1175.5
  HRU     499 SUB  23 PAST  Yld =     9.3 BIOM =   1181.2
  HRU     500 SUB  23 PAST  Yld =    11.5 BIOM =   1647.6
  HRU     501 SUB  23 PAST  Yld =    11.1 BIOM =   1655.9
  HRU     502 SUB  23 PAST  Yld =    11.5 BIOM =   1814.1
  HRU     503 SUB  23 PAST  Yld =     8.9 BIOM =   1110.5
  HRU     504 SUB  23 PAST  Yld =     9.7 BIOM =   1112.1
  HRU     505 SUB  23 WATR  Yld =     0.0 BIOM =      0.0
  HRU     506 SUB  23 WATR  Yld =     0.0 BIOM =      0.0
  HRU     507 SUB  23 WATR  Yld =     0.0 BIOM =      0.0
  HRU     508 SUB  24 RICE  Yld =  3097.9 BIOM =   8011.0
  HRU     509 SUB  24 RICE  Yld =  3095.3 BIOM =   8004.0
  HRU     510 SUB  24 RICE  Yld =  3092.2 BIOM =   7996.1
  HRU     511 SUB  24 RICE  Yld =  3042.8 BIOM =   7867.6
  HRU     512 SUB  24 RICE  Yld =  3071.3 BIOM =   7941.1
  HRU     513 SUB  24 RICE  Yld =  3072.8 BIOM =   7945.2
  HRU     514 SUB  24 AGRC  Yld =  3701.8 BIOM =  11982.6
  HRU     515 SUB  24 AGRC  Yld =  3684.3 BIOM =  11925.5
  HRU     516 SUB  24 AGRC  Yld =  3681.9 BIOM =  11917.8
  HRU     517 SUB  24 AGRC  Yld =  3748.2 BIOM =  12132.8
  HRU     518 SUB  24 AGRC  Yld =  3749.0 BIOM =  12135.4
  HRU     519 SUB  24 FRST  Yld =  3155.2 BIOM =   4507.4
  HRU     520 SUB  24 FRST  Yld =  3189.1 BIOM =   4555.8
  HRU     521 SUB  24 FRST  Yld =  3230.6 BIOM =   4615.2
  HRU     522 SUB  24 FRST  Yld =  4114.3 BIOM =   5877.5
  HRU     523 SUB  24 FRST  Yld =  4003.4 BIOM =   5719.2
  HRU     524 SUB  24 FRST  Yld =  4010.2 BIOM =   5728.8
  HRU     525 SUB  24 PAST  Yld =   255.9 BIOM =    792.4
  HRU     526 SUB  24 PAST  Yld =   264.5 BIOM =    800.9
  HRU     527 SUB  24 PAST  Yld =   248.2 BIOM =    758.0
  HRU     528 SUB  24 PAST  Yld =   492.3 BIOM =   1534.4
  HRU     529 SUB  24 PAST  Yld =   467.9 BIOM =   1480.1
  HRU     530 SUB  25 RICE  Yld =  3078.1 BIOM =   7958.2
  HRU     531 SUB  25 RICE  Yld =  3076.6 BIOM =   7954.1
  HRU     532 SUB  25 RICE  Yld =  3059.6 BIOM =   7910.3
  HRU     533 SUB  25 AGRC  Yld =  3692.2 BIOM =  11951.3
  HRU     534 SUB  25 AGRC  Yld =  3702.9 BIOM =  11985.9
  HRU     535 SUB  25 AGRC  Yld =  3698.7 BIOM =  11972.3
  HRU     536 SUB  25 AGRC  Yld =  3694.6 BIOM =  11959.2
  HRU     537 SUB  25 AGRC  Yld =  3716.7 BIOM =  12031.0
  HRU     538 SUB  25 FRST  Yld =  3181.4 BIOM =   4544.9
  HRU     539 SUB  25 FRST  Yld =  3169.5 BIOM =   4527.9
  HRU     540 SUB  25 FRST  Yld =  3154.9 BIOM =   4507.0
  HRU     541 SUB  25 FRST  Yld =  4663.0 BIOM =   6661.5
  HRU     542 SUB  25 FRST  Yld =  6038.5 BIOM =   8626.4
  HRU     543 SUB  25 FRST  Yld =  5461.7 BIOM =   7802.4
  HRU     544 SUB  25 FRST  Yld =  3621.3 BIOM =   5173.2
  HRU     545 SUB  25 FRST  Yld =  3520.8 BIOM =   5029.6
  HRU     546 SUB  25 FRST  Yld =  3565.4 BIOM =   5093.5
  HRU     547 SUB  25 FRST  Yld =  3842.2 BIOM =   5488.9
  HRU     548 SUB  25 FRST  Yld =  3933.5 BIOM =   5619.2
  HRU     549 SUB  25 FRST  Yld =  3865.7 BIOM =   5522.4
  HRU     550 SUB  25 FRST  Yld =  6830.6 BIOM =   9758.0
  HRU     551 SUB  25 FRST  Yld =  6566.4 BIOM =   9380.6
  HRU     552 SUB  25 FRST  Yld =  6587.3 BIOM =   9410.4
  HRU     553 SUB  25 FRST  Yld =  3103.2 BIOM =   4433.1
  HRU     554 SUB  25 FRST  Yld =  2976.7 BIOM =   4252.5
  HRU     555 SUB  25 FRST  Yld =  3038.9 BIOM =   4341.3
  HRU     556 SUB  25 PAST  Yld =   471.0 BIOM =   1430.6
  HRU     557 SUB  25 PAST  Yld =   551.6 BIOM =   1753.3
  HRU     558 SUB  25 PAST  Yld =   579.7 BIOM =   1898.0
  HRU     559 SUB  25 PAST  Yld =   297.6 BIOM =    943.6
  HRU     560 SUB  25 PAST  Yld =   318.6 BIOM =    967.6
  HRU     561 SUB  25 PAST  Yld =   299.3 BIOM =    934.7
  HRU     562 SUB  26 RICE  Yld =  3081.0 BIOM =   7966.6
  HRU     563 SUB  26 RICE  Yld =  3090.9 BIOM =   7992.3
  HRU     564 SUB  26 RICE  Yld =  3100.7 BIOM =   8017.4
  HRU     565 SUB  26 FRST  Yld =  3188.3 BIOM =   4554.7
  HRU     566 SUB  26 FRST  Yld =  3162.6 BIOM =   4518.0
  HRU     567 SUB  26 FRST  Yld =  3175.1 BIOM =   4535.9
  HRU     568 SUB  26 FRST  Yld =  4852.7 BIOM =   6932.4
  HRU     569 SUB  26 FRST  Yld =  4777.0 BIOM =   6824.3
  HRU     570 SUB  26 FRST  Yld =  4789.0 BIOM =   6841.4
  HRU     571 SUB  26 FRST  Yld =  3925.8 BIOM =   5608.3
  HRU     572 SUB  26 FRST  Yld =  3837.8 BIOM =   5482.6
  HRU     573 SUB  26 FRST  Yld =  3823.2 BIOM =   5461.6
  HRU     574 SUB  26 FRST  Yld =  2504.5 BIOM =   3577.9
  HRU     575 SUB  26 FRST  Yld =  2509.4 BIOM =   3584.8
  HRU     576 SUB  26 FRST  Yld =  2573.7 BIOM =   3676.7
  HRU     577 SUB  27 RICE  Yld =  2858.4 BIOM =   7382.7
  HRU     578 SUB  27 RICE  Yld =  2866.4 BIOM =   7403.2
  HRU     579 SUB  27 RICE  Yld =  2865.3 BIOM =   7399.6
  HRU     580 SUB  27 RICE  Yld =  2868.7 BIOM =   7408.5
  HRU     581 SUB  27 FRST  Yld =  3061.3 BIOM =   4373.3
  HRU     582 SUB  27 FRST  Yld =  3041.7 BIOM =   4345.3
  HRU     583 SUB  27 FRST  Yld =  3137.5 BIOM =   4482.2
  HRU     584 SUB  27 FRST  Yld =  3937.9 BIOM =   5625.6
  HRU     585 SUB  27 FRST  Yld =  3931.5 BIOM =   5616.5
  HRU     586 SUB  27 PAST  Yld =   406.9 BIOM =    583.3
  HRU     587 SUB  27 PAST  Yld =   407.5 BIOM =    584.1
  HRU     588 SUB  27 PAST  Yld =   538.0 BIOM =    771.1
  HRU     589 SUB  27 PAST  Yld =   538.5 BIOM =    771.9
  HRU     590 SUB  27 WATR  Yld =     0.0 BIOM =      0.0
  HRU     591 SUB  27 WATR  Yld =     0.0 BIOM =      0.0
  HRU     592 SUB  28 RICE  Yld =  2862.1 BIOM =   7392.3
  HRU     593 SUB  28 RICE  Yld =  2868.2 BIOM =   7407.8
  HRU     594 SUB  28 RICE  Yld =  2859.9 BIOM =   7386.3
  HRU     595 SUB  28 RICE  Yld =  2869.7 BIOM =   7411.0
  HRU     596 SUB  28 RICE  Yld =  2867.0 BIOM =   7404.1
  HRU     597 SUB  28 AGRC  Yld =  3652.6 BIOM =  11821.9
  HRU     598 SUB  28 AGRC  Yld =  3668.1 BIOM =  11872.2
  HRU     599 SUB  28 AGRC  Yld =  3661.7 BIOM =  11851.4
  HRU     600 SUB  28 FRST  Yld =  3071.5 BIOM =   4387.9
  HRU     601 SUB  28 FRST  Yld =  3138.1 BIOM =   4483.0
  HRU     602 SUB  28 FRST  Yld =  3062.0 BIOM =   4374.3
  HRU     603 SUB  28 FRST  Yld =  4184.1 BIOM =   5977.3
  HRU     604 SUB  28 FRST  Yld =  3898.8 BIOM =   5569.8
  HRU     605 SUB  28 FRST  Yld =  4070.1 BIOM =   5814.4
  HRU     606 SUB  28 FRST  Yld =  4080.7 BIOM =   5829.6
  HRU     607 SUB  28 FRST  Yld =  3934.4 BIOM =   5620.6
  HRU     608 SUB  28 FRST  Yld =  3927.4 BIOM =   5610.6
  HRU     609 SUB  28 PAST  Yld =   416.6 BIOM =    597.1
  HRU     610 SUB  28 PAST  Yld =   429.0 BIOM =    614.8
  HRU     611 SUB  28 PAST  Yld =   407.2 BIOM =    583.6
  HRU     612 SUB  28 PAST  Yld =   544.1 BIOM =    779.9
  HRU     613 SUB  28 PAST  Yld =   560.7 BIOM =    803.6
  HRU     614 SUB  28 PAST  Yld =   526.3 BIOM =    754.4
  HRU     615 SUB  28 PAST  Yld =   492.6 BIOM =    706.1
  HRU     616 SUB  28 PAST  Yld =   482.2 BIOM =    691.2
  HRU     617 SUB  29 RICE  Yld =  2862.1 BIOM =   7391.0
  HRU     618 SUB  29 RICE  Yld =  2855.4 BIOM =   7373.4
  HRU     619 SUB  29 RICE  Yld =  2858.4 BIOM =   7381.2
  HRU     620 SUB  29 RICE  Yld =  2868.7 BIOM =   7407.4
  HRU     621 SUB  29 RICE  Yld =  2875.0 BIOM =   7423.8
  HRU     622 SUB  29 RICE  Yld =  2867.2 BIOM =   7403.5
  HRU     623 SUB  29 FRST  Yld =  2979.0 BIOM =   4255.7
  HRU     624 SUB  29 FRST  Yld =  3043.8 BIOM =   4348.3
  HRU     625 SUB  29 FRST  Yld =  3006.6 BIOM =   4295.1
  HRU     626 SUB  29 FRST  Yld =  3730.1 BIOM =   5328.7
  HRU     627 SUB  29 FRST  Yld =  3741.8 BIOM =   5345.4
  HRU     628 SUB  29 FRST  Yld =  3864.9 BIOM =   5521.2
  HRU     629 SUB  29 WATR  Yld =     0.0 BIOM =      0.0
  HRU     630 SUB  29 WATR  Yld =     0.0 BIOM =      0.0
  HRU     631 SUB  29 WATR  Yld =     0.0 BIOM =      0.0
  HRU     632 SUB  29 WATR  Yld =     0.0 BIOM =      0.0
  HRU     633 SUB  29 WATR  Yld =     0.0 BIOM =      0.0
  HRU     634 SUB  29 WATR  Yld =     0.0 BIOM =      0.0
  HRU     635 SUB  29 BERM  Yld = 16572.4 BIOM =  23785.3
  HRU     636 SUB  29 BERM  Yld = 17117.6 BIOM =  24571.1
  HRU     637 SUB  29 BERM  Yld = 17096.7 BIOM =  24540.8
  HRU     638 SUB  30 RICE  Yld =  3094.3 BIOM =   8000.9
  HRU     639 SUB  30 RICE  Yld =  3088.8 BIOM =   7986.2
  HRU     640 SUB  30 RICE  Yld =  3092.7 BIOM =   7996.3
  HRU     641 SUB  30 RICE  Yld =  3086.6 BIOM =   7980.7
  HRU     642 SUB  30 RICE  Yld =  3103.8 BIOM =   8025.0
  HRU     643 SUB  30 RICE  Yld =  3087.5 BIOM =   7983.2
  HRU     644 SUB  30 RICE  Yld =  3078.7 BIOM =   7959.6
  HRU     645 SUB  30 RICE  Yld =  3073.6 BIOM =   7946.5
  HRU     646 SUB  30 RICE  Yld =  3062.7 BIOM =   7918.2
  HRU     647 SUB  30 RICE  Yld =  3091.0 BIOM =   7992.7
  HRU     648 SUB  30 RICE  Yld =  3090.8 BIOM =   7992.0
  HRU     649 SUB  30 AGRC  Yld =  3754.3 BIOM =  12152.6
  HRU     650 SUB  30 AGRC  Yld =  3743.9 BIOM =  12118.7
  HRU     651 SUB  30 FRST  Yld =  3165.8 BIOM =   4522.5
  HRU     652 SUB  30 FRST  Yld =  3152.5 BIOM =   4503.6
  HRU     653 SUB  30 FRST  Yld =  3182.0 BIOM =   4545.7
  HRU     654 SUB  30 FRST  Yld =  5453.9 BIOM =   7791.3
  HRU     655 SUB  30 FRST  Yld =  6003.2 BIOM =   8576.0
  HRU     656 SUB  30 FRST  Yld =  4659.3 BIOM =   6656.1
  HRU     657 SUB  30 FRST  Yld =  3636.0 BIOM =   5194.3
  HRU     658 SUB  30 FRST  Yld =  3555.9 BIOM =   5079.9
  HRU     659 SUB  30 FRST  Yld =  3513.3 BIOM =   5019.0
  HRU     660 SUB  30 FRST  Yld =  3921.7 BIOM =   5602.4
  HRU     661 SUB  30 FRST  Yld =  3833.7 BIOM =   5476.7
  HRU     662 SUB  30 FRST  Yld =  3818.3 BIOM =   5454.7
  HRU     663 SUB  30 FRST  Yld =  2509.9 BIOM =   3585.6
  HRU     664 SUB  30 FRST  Yld =  2505.4 BIOM =   3579.2
  HRU     665 SUB  30 FRST  Yld =  2555.2 BIOM =   3650.3
  HRU     666 SUB  30 FRST  Yld =  2611.7 BIOM =   3731.0
  HRU     667 SUB  30 FRST  Yld =  2710.9 BIOM =   3872.7
  HRU     668 SUB  30 FRST  Yld =  2571.8 BIOM =   3674.1
  HRU     669 SUB  30 BERM  Yld = 20167.8 BIOM =  28977.2
  HRU     670 SUB  30 BERM  Yld = 20177.4 BIOM =  28991.0
  HRU     671 SUB  30 BERM  Yld = 20084.6 BIOM =  28857.5
  HRU     672 SUB  30 BERM  Yld = 20129.7 BIOM =  28922.3
  HRU     673 SUB  31 RICE  Yld =  3079.5 BIOM =   7961.5
  HRU     674 SUB  31 RICE  Yld =  3067.8 BIOM =   7931.4
  HRU     675 SUB  31 RICE  Yld =  3072.9 BIOM =   7944.8
  HRU     676 SUB  31 RICE  Yld =  3081.8 BIOM =   7968.4
  HRU     677 SUB  31 RICE  Yld =  3101.6 BIOM =   8019.9
  HRU     678 SUB  31 RICE  Yld =  3094.2 BIOM =   8000.9
  HRU     679 SUB  31 FRST  Yld =  3169.7 BIOM =   4528.2
  HRU     680 SUB  31 FRST  Yld =  3183.4 BIOM =   4547.7
  HRU     681 SUB  31 FRST  Yld =  3155.5 BIOM =   4507.9
  HRU     682 SUB  31 FRST  Yld =  5539.5 BIOM =   7913.5
  HRU     683 SUB  31 FRST  Yld =  5973.4 BIOM =   8533.4
  HRU     684 SUB  31 FRST  Yld =  4661.6 BIOM =   6659.4
  HRU     685 SUB  31 FRST  Yld =  4755.2 BIOM =   6793.2
  HRU     686 SUB  31 FRST  Yld =  4815.6 BIOM =   6879.5
  HRU     687 SUB  31 FRST  Yld =  4752.8 BIOM =   6789.7
  HRU     688 SUB  31 FRST  Yld =  3858.8 BIOM =   5512.6
  HRU     689 SUB  31 FRST  Yld =  3835.3 BIOM =   5479.0
  HRU     690 SUB  31 FRST  Yld =  3920.0 BIOM =   5600.0
  HRU     691 SUB  31 FRST  Yld =  2562.7 BIOM =   3661.0
  HRU     692 SUB  31 FRST  Yld =  2496.7 BIOM =   3566.6
  HRU     693 SUB  31 FRST  Yld =  2505.8 BIOM =   3579.7
  HRU     694 SUB  31 FRST  Yld =  2660.1 BIOM =   3800.1
  HRU     695 SUB  31 FRST  Yld =  2609.1 BIOM =   3727.3
  HRU     696 SUB  31 FRST  Yld =  2563.5 BIOM =   3662.2
  HRU     697 SUB  32 RICE  Yld =  2848.2 BIOM =   7355.1
  HRU     698 SUB  32 RICE  Yld =  2850.4 BIOM =   7360.9
  HRU     699 SUB  32 RICE  Yld =  2868.9 BIOM =   7408.5
  HRU     700 SUB  32 RICE  Yld =  2869.0 BIOM =   7408.8
  HRU     701 SUB  32 RICE  Yld =  2877.9 BIOM =   7431.4
  HRU     702 SUB  32 RICE  Yld =  2873.6 BIOM =   7420.4
  HRU     703 SUB  32 AGRC  Yld =  3691.5 BIOM =  11947.8
  HRU     704 SUB  32 AGRC  Yld =  3696.6 BIOM =  11964.3
  HRU     705 SUB  32 AGRC  Yld =  3677.2 BIOM =  11901.4
  HRU     706 SUB  32 AGRC  Yld =  3692.9 BIOM =  11952.4
  HRU     707 SUB  32 AGRC  Yld =  3697.0 BIOM =  11965.7
  HRU     708 SUB  32 FRST  Yld =  3602.8 BIOM =   5146.8
  HRU     709 SUB  32 FRST  Yld =  3611.9 BIOM =   5159.9
  HRU     710 SUB  32 FRST  Yld =  3001.1 BIOM =   4287.3
  HRU     711 SUB  32 FRST  Yld =  3045.0 BIOM =   4350.1
  HRU     712 SUB  32 FRST  Yld =  2999.1 BIOM =   4284.5
  HRU     713 SUB  32 FRST  Yld =  3930.9 BIOM =   5615.6
  HRU     714 SUB  32 FRST  Yld =  4031.4 BIOM =   5759.1
  HRU     715 SUB  32 FRST  Yld =  3806.5 BIOM =   5437.9
  HRU     716 SUB  32 FRST  Yld =  3763.9 BIOM =   5377.1
  HRU     717 SUB  32 FRST  Yld =  3801.6 BIOM =   5430.8
  HRU     718 SUB  32 FRST  Yld =  3883.0 BIOM =   5547.1
  HRU     719 SUB  32 PAST  Yld =   399.7 BIOM =    572.9
  HRU     720 SUB  32 PAST  Yld =   408.7 BIOM =    585.8
  HRU     721 SUB  32 PAST  Yld =   394.9 BIOM =    566.1
  HRU     722 SUB  32 PAST  Yld =   526.0 BIOM =    754.1
  HRU     723 SUB  32 PAST  Yld =   517.2 BIOM =    741.4
  HRU     724 SUB  32 PAST  Yld =   510.3 BIOM =    731.4
  HRU     725 SUB  32 BERM  Yld = 19292.3 BIOM =  27709.7
  HRU     726 SUB  32 BERM  Yld = 19294.4 BIOM =  27712.7
  HRU     727 SUB  32 BERM  Yld = 19134.7 BIOM =  27483.4
  HRU     728 SUB  32 BERM  Yld = 19138.1 BIOM =  27488.3
  HRU     729 SUB  33 RICE  Yld =  2850.0 BIOM =   7359.8
  HRU     730 SUB  33 RICE  Yld =  2843.8 BIOM =   7344.0
  HRU     731 SUB  33 RICE  Yld =  2864.2 BIOM =   7396.4
  HRU     732 SUB  33 RICE  Yld =  2864.8 BIOM =   7398.0
  HRU     733 SUB  33 RICE  Yld =  2875.3 BIOM =   7424.6
  HRU     734 SUB  33 RICE  Yld =  2878.8 BIOM =   7433.9
  HRU     735 SUB  33 RICE  Yld =  2872.4 BIOM =   7417.1
  HRU     736 SUB  33 AGRC  Yld =  3662.9 BIOM =  11855.4
  HRU     737 SUB  33 AGRC  Yld =  3668.2 BIOM =  11872.3
  HRU     738 SUB  33 AGRC  Yld =  3677.2 BIOM =  11901.6
  HRU     739 SUB  33 AGRC  Yld =  3671.1 BIOM =  11882.0
  HRU     740 SUB  33 FRST  Yld =  2999.9 BIOM =   4285.6
  HRU     741 SUB  33 FRST  Yld =  2999.8 BIOM =   4285.4
  HRU     742 SUB  33 FRST  Yld =  3043.6 BIOM =   4348.0
  HRU     743 SUB  33 FRST  Yld =  3810.6 BIOM =   5443.7
  HRU     744 SUB  33 FRST  Yld =  3943.2 BIOM =   5633.2
  HRU     745 SUB  33 FRST  Yld =  4042.6 BIOM =   5775.1
  HRU     746 SUB  33 FRST  Yld =  3467.1 BIOM =   4953.0
  HRU     747 SUB  33 FRST  Yld =  3400.2 BIOM =   4857.5
  HRU     748 SUB  33 FRST  Yld =  3540.3 BIOM =   5057.6
  HRU     749 SUB  33 FRST  Yld =  3771.7 BIOM =   5388.1
  HRU     750 SUB  33 FRST  Yld =  3775.4 BIOM =   5393.5
  HRU     751 SUB  33 FRST  Yld =  3891.5 BIOM =   5559.3
  HRU     752 SUB  33 FRST  Yld =  2411.2 BIOM =   3444.6
  HRU     753 SUB  33 FRST  Yld =  2381.8 BIOM =   3402.6
  HRU     754 SUB  33 FRST  Yld =  2460.3 BIOM =   3514.7
  HRU     755 SUB  33 FRST  Yld =  2899.5 BIOM =   4142.2
  HRU     756 SUB  33 FRST  Yld =  2987.2 BIOM =   4267.5
  HRU     757 SUB  33 FRST  Yld =  3070.7 BIOM =   4386.8
  HRU     758 SUB  33 PAST  Yld =   409.7 BIOM =    587.3
  HRU     759 SUB  33 PAST  Yld =   400.4 BIOM =    573.9
  HRU     760 SUB  33 PAST  Yld =   394.7 BIOM =    565.8
  HRU     761 SUB  33 PAST  Yld =   541.9 BIOM =    776.7
  HRU     762 SUB  33 PAST  Yld =   507.3 BIOM =    727.1
  HRU     763 SUB  33 PAST  Yld =   523.4 BIOM =    750.2
  HRU     764 SUB  33 PAST  Yld =   472.9 BIOM =    677.8
  HRU     765 SUB  33 PAST  Yld =   451.6 BIOM =    647.3
  HRU     766 SUB  33 PAST  Yld =   460.2 BIOM =    659.7
  HRU     767 SUB  34 RICE  Yld =  2849.7 BIOM =   7359.2
  HRU     768 SUB  34 RICE  Yld =  2843.6 BIOM =   7343.4
  HRU     769 SUB  34 RICE  Yld =  2868.1 BIOM =   7406.6
  HRU     770 SUB  34 RICE  Yld =  2864.2 BIOM =   7396.6
  HRU     771 SUB  34 RICE  Yld =  2863.7 BIOM =   7395.1
  HRU     772 SUB  34 RICE  Yld =  2874.7 BIOM =   7423.1
  HRU     773 SUB  34 RICE  Yld =  2870.6 BIOM =   7412.4
  HRU     774 SUB  34 AGRC  Yld =  3696.1 BIOM =  11962.7
  HRU     775 SUB  34 AGRC  Yld =  3697.5 BIOM =  11967.3
  HRU     776 SUB  34 AGRC  Yld =  3678.1 BIOM =  11904.3
  HRU     777 SUB  34 AGRC  Yld =  3677.7 BIOM =  11903.0
  HRU     778 SUB  34 AGRC  Yld =  3694.5 BIOM =  11957.5
  HRU     779 SUB  34 AGRC  Yld =  3697.2 BIOM =  11966.3
  HRU     780 SUB  34 FRST  Yld =  3045.8 BIOM =   4351.1
  HRU     781 SUB  34 FRST  Yld =  2997.6 BIOM =   4282.2
  HRU     782 SUB  34 FRST  Yld =  2997.8 BIOM =   4282.6
  HRU     783 SUB  34 FRST  Yld =  3939.7 BIOM =   5628.2
  HRU     784 SUB  34 FRST  Yld =  3808.0 BIOM =   5440.0
  HRU     785 SUB  34 FRST  Yld =  4089.6 BIOM =   5842.2
  HRU     786 SUB  34 FRST  Yld =  3393.3 BIOM =   4847.6
  HRU     787 SUB  34 FRST  Yld =  3464.7 BIOM =   4949.5
  HRU     788 SUB  34 FRST  Yld =  3567.6 BIOM =   5096.6
  HRU     789 SUB  34 FRST  Yld =  3911.5 BIOM =   5587.9
  HRU     790 SUB  34 FRST  Yld =  3767.5 BIOM =   5382.2
  HRU     791 SUB  34 FRST  Yld =  3760.2 BIOM =   5371.7
  HRU     792 SUB  34 FRST  Yld =  2901.2 BIOM =   4144.6
  HRU     793 SUB  34 FRST  Yld =  3094.5 BIOM =   4420.7
  HRU     794 SUB  34 FRST  Yld =  2982.3 BIOM =   4260.5
  HRU     795 SUB  34 PAST  Yld =   394.1 BIOM =    564.8
  HRU     796 SUB  34 PAST  Yld =   399.7 BIOM =    572.9
  HRU     797 SUB  34 PAST  Yld =   409.9 BIOM =    587.5
  HRU     798 SUB  34 PAST  Yld =   506.1 BIOM =    725.5
  HRU     799 SUB  34 PAST  Yld =   545.3 BIOM =    781.6
  HRU     800 SUB  34 PAST  Yld =   523.4 BIOM =    750.3
  HRU     801 SUB  34 PAST  Yld =   461.1 BIOM =    661.0
  HRU     802 SUB  34 PAST  Yld =   450.7 BIOM =    646.0
  HRU     803 SUB  34 PAST  Yld =   478.0 BIOM =    685.2
  HRU     804 SUB  34 PAST  Yld =   513.1 BIOM =    735.5
  HRU     805 SUB  34 PAST  Yld =   410.6 BIOM =    588.5
  HRU     806 SUB  34 PAST  Yld =   394.3 BIOM =    565.2
  HRU     807 SUB  34 PAST  Yld =   380.3 BIOM =    545.0
  HRU     808 SUB  35 RICE  Yld =  2854.4 BIOM =   7370.9
  HRU     809 SUB  35 RICE  Yld =  2854.9 BIOM =   7372.2
  HRU     810 SUB  35 RICE  Yld =  2868.5 BIOM =   7406.7
  HRU     811 SUB  35 RICE  Yld =  2873.1 BIOM =   7418.8
  HRU     812 SUB  35 RICE  Yld =  2872.8 BIOM =   7418.2
  HRU     813 SUB  35 AGRC  Yld =  3688.3 BIOM =  11937.4
  HRU     814 SUB  35 FRST  Yld =  2981.5 BIOM =   4259.3
  HRU     815 SUB  35 FRST  Yld =  3006.5 BIOM =   4295.1
  HRU     816 SUB  35 FRST  Yld =  3041.2 BIOM =   4344.5
  HRU     817 SUB  35 FRST  Yld =  3740.7 BIOM =   5343.8
  HRU     818 SUB  35 FRST  Yld =  3725.7 BIOM =   5322.4
  HRU     819 SUB  35 WATR  Yld =     0.0 BIOM =      0.0
  HRU     820 SUB  35 WATR  Yld =     0.0 BIOM =      0.0
  HRU     821 SUB  35 WATR  Yld =     0.0 BIOM =      0.0
  HRU     822 SUB  35 WATR  Yld =     0.0 BIOM =      0.0
  HRU     823 SUB  35 WATR  Yld =     0.0 BIOM =      0.0
  HRU     824 SUB  35 BERM  Yld = 17121.6 BIOM =  24577.0
  HRU     825 SUB  35 BERM  Yld = 15832.1 BIOM =  22690.9
  HRU     826 SUB  35 BERM  Yld = 16813.0 BIOM =  24128.8
  HRU     827 SUB  36 RICE  Yld =  3100.5 BIOM =   8016.7
  HRU     828 SUB  36 RICE  Yld =  3092.4 BIOM =   7995.7
  HRU     829 SUB  36 RICE  Yld =  3086.2 BIOM =   7979.4
  HRU     830 SUB  36 RICE  Yld =  3081.8 BIOM =   7968.2
  HRU     831 SUB  36 RICE  Yld =  3086.7 BIOM =   7980.4
  HRU     832 SUB  36 RICE  Yld =  3092.7 BIOM =   7995.9
  HRU     833 SUB  36 RICE  Yld =  3080.5 BIOM =   7964.2
  HRU     834 SUB  36 AGRC  Yld =  3726.4 BIOM =  12062.3
  HRU     835 SUB  36 AGRC  Yld =  3720.4 BIOM =  12043.0
  HRU     836 SUB  36 AGRC  Yld =  3726.5 BIOM =  12062.7
  HRU     837 SUB  36 AGRC  Yld =  3727.8 BIOM =  12067.2
  HRU     838 SUB  36 AGRC  Yld =  3724.7 BIOM =  12056.9
  HRU     839 SUB  36 FRST  Yld =  3170.0 BIOM =   4528.6
  HRU     840 SUB  36 FRST  Yld =  3184.4 BIOM =   4549.1
  HRU     841 SUB  36 FRST  Yld =  3153.2 BIOM =   4504.6
  HRU     842 SUB  36 FRST  Yld =  3650.6 BIOM =   5215.2
  HRU     843 SUB  36 FRST  Yld =  3528.1 BIOM =   5040.2
  HRU     844 SUB  36 FRST  Yld =  3565.9 BIOM =   5094.2
  HRU     845 SUB  36 FRST  Yld =  3964.4 BIOM =   5663.4
  HRU     846 SUB  36 FRST  Yld =  3877.8 BIOM =   5539.7
  HRU     847 SUB  36 FRST  Yld =  3897.3 BIOM =   5567.6
  HRU     848 SUB  36 PAST  Yld =   256.6 BIOM =    775.1
  HRU     849 SUB  36 PAST  Yld =   241.7 BIOM =    736.9
  HRU     850 SUB  36 PAST  Yld =   241.5 BIOM =    742.9
  HRU     851 SUB  36 WATR  Yld =     0.0 BIOM =      0.0
  HRU     852 SUB  36 WATR  Yld =     0.0 BIOM =      0.0
  HRU     853 SUB  36 WATR  Yld =     0.0 BIOM =      0.0
  HRU     854 SUB  36 WATR  Yld =     0.0 BIOM =      0.0
  HRU     855 SUB  36 WATR  Yld =     0.0 BIOM =      0.0
  HRU     856 SUB  36 WATR  Yld =     0.0 BIOM =      0.0
  HRU     857 SUB  37 RICE  Yld =  3086.1 BIOM =   7979.6
  HRU     858 SUB  37 RICE  Yld =  3088.9 BIOM =   7986.5
  HRU     859 SUB  37 RICE  Yld =  3094.8 BIOM =   8001.9
  HRU     860 SUB  37 RICE  Yld =  3103.7 BIOM =   8024.9
  HRU     861 SUB  37 RICE  Yld =  3081.3 BIOM =   7967.2
  HRU     862 SUB  37 RICE  Yld =  3101.0 BIOM =   8018.3
  HRU     863 SUB  37 RICE  Yld =  3083.7 BIOM =   7973.3
  HRU     864 SUB  37 RICE  Yld =  3073.7 BIOM =   7947.6
  HRU     865 SUB  37 RICE  Yld =  3058.8 BIOM =   7908.1
  HRU     866 SUB  37 RICE  Yld =  3066.8 BIOM =   7928.9
  HRU     867 SUB  37 RICE  Yld =  3089.9 BIOM =   7989.7
  HRU     868 SUB  37 RICE  Yld =  3102.6 BIOM =   8022.4
  HRU     869 SUB  37 RICE  Yld =  3081.3 BIOM =   7967.3
  HRU     870 SUB  37 FRST  Yld =  3181.4 BIOM =   4544.9
  HRU     871 SUB  37 FRST  Yld =  3155.8 BIOM =   4508.3
  HRU     872 SUB  37 FRST  Yld =  3173.8 BIOM =   4533.9
  HRU     873 SUB  37 FRST  Yld =  4755.6 BIOM =   6793.7
  HRU     874 SUB  37 FRST  Yld =  4754.6 BIOM =   6792.4
  HRU     875 SUB  37 FRST  Yld =  4810.3 BIOM =   6871.8
  HRU     876 SUB  37 FRST  Yld =  3872.5 BIOM =   5532.1
  HRU     877 SUB  37 FRST  Yld =  3838.3 BIOM =   5483.3
  HRU     878 SUB  37 FRST  Yld =  3928.4 BIOM =   5611.9
  HRU     879 SUB  37 FRST  Yld =  2513.0 BIOM =   3590.0
  HRU     880 SUB  37 FRST  Yld =  2497.0 BIOM =   3567.2
  HRU     881 SUB  37 FRST  Yld =  2564.9 BIOM =   3664.1
  HRU     882 SUB  37 BERM  Yld = 20165.9 BIOM =  28974.5
  HRU     883 SUB  37 BERM  Yld = 20169.5 BIOM =  28979.6
  HRU     884 SUB  37 BERM  Yld = 20152.8 BIOM =  28955.8
  HRU     885 SUB  37 BERM  Yld = 20168.1 BIOM =  28977.6
  HRU     886 SUB  37 BERM  Yld = 20175.8 BIOM =  28988.7
  HRU     887 SUB  37 BERM  Yld = 20177.3 BIOM =  28990.7
  HRU     888 SUB  37 BERM  Yld = 20137.2 BIOM =  28933.0
  HRU     889 SUB  37 BERM  Yld = 20085.4 BIOM =  28858.5
  HRU     890 SUB  38 RICE  Yld =  3096.8 BIOM =   8007.3
  HRU     891 SUB  38 RICE  Yld =  3092.9 BIOM =   7996.7
  HRU     892 SUB  38 RICE  Yld =  3095.1 BIOM =   8002.6
  HRU     893 SUB  38 RICE  Yld =  3085.6 BIOM =   7978.4
  HRU     894 SUB  38 RICE  Yld =  3096.7 BIOM =   8006.9
  HRU     895 SUB  38 RICE  Yld =  3090.2 BIOM =   7989.9
  HRU     896 SUB  38 RICE  Yld =  3103.9 BIOM =   8025.3
  HRU     897 SUB  38 RICE  Yld =  3086.7 BIOM =   7981.2
  HRU     898 SUB  38 RICE  Yld =  3075.8 BIOM =   7952.8
  HRU     899 SUB  38 RICE  Yld =  3068.6 BIOM =   7933.5
  HRU     900 SUB  38 RICE  Yld =  3075.3 BIOM =   7950.8
  HRU     901 SUB  38 RICE  Yld =  3076.2 BIOM =   7953.3
  HRU     902 SUB  38 AGRC  Yld =  3703.3 BIOM =  11987.2
  HRU     903 SUB  38 AGRC  Yld =  3697.9 BIOM =  11969.6
  HRU     904 SUB  38 AGRC  Yld =  3697.2 BIOM =  11967.3
  HRU     905 SUB  38 AGRC  Yld =  3740.2 BIOM =  12106.8
  HRU     906 SUB  38 AGRC  Yld =  3736.5 BIOM =  12094.9
  HRU     907 SUB  38 AGRC  Yld =  3734.7 BIOM =  12089.1
  HRU     908 SUB  38 AGRC  Yld =  3738.9 BIOM =  12102.8
  HRU     909 SUB  38 AGRC  Yld =  3742.5 BIOM =  12114.2
  HRU     910 SUB  38 AGRC  Yld =  3755.5 BIOM =  12156.4
  HRU     911 SUB  38 FRST  Yld =  3271.8 BIOM =   4674.0
  HRU     912 SUB  38 FRST  Yld =  3260.2 BIOM =   4657.4
  HRU     913 SUB  38 FRST  Yld =  3289.1 BIOM =   4698.7
  HRU     914 SUB  38 FRST  Yld =  3171.8 BIOM =   4531.1
  HRU     915 SUB  38 FRST  Yld =  3180.6 BIOM =   4543.7
  HRU     916 SUB  38 FRST  Yld =  3154.9 BIOM =   4507.0
  HRU     917 SUB  38 FRST  Yld =  4799.0 BIOM =   6855.7
  HRU     918 SUB  38 FRST  Yld =  4747.0 BIOM =   6781.4
  HRU     919 SUB  38 FRST  Yld =  4744.9 BIOM =   6778.5
  HRU     920 SUB  38 FRST  Yld =  3552.2 BIOM =   5074.6
  HRU     921 SUB  38 FRST  Yld =  3625.0 BIOM =   5178.5
  HRU     922 SUB  38 FRST  Yld =  3511.6 BIOM =   5016.6
  HRU     923 SUB  38 FRST  Yld =  3857.2 BIOM =   5510.3
  HRU     924 SUB  38 FRST  Yld =  3922.6 BIOM =   5603.7
  HRU     925 SUB  38 FRST  Yld =  3832.6 BIOM =   5475.2
  HRU     926 SUB  39 RICE  Yld =  2850.9 BIOM =   7362.4
  HRU     927 SUB  39 RICE  Yld =  2879.2 BIOM =   7434.8
  HRU     928 SUB  39 RICE  Yld =  2879.8 BIOM =   7436.4
  HRU     929 SUB  39 AGRC  Yld =  3706.3 BIOM =  11995.5
  HRU     930 SUB  39 AGRC  Yld =  3704.0 BIOM =  11988.2
  HRU     931 SUB  39 AGRC  Yld =  3686.3 BIOM =  11931.0
  HRU     932 SUB  39 AGRC  Yld =  3682.3 BIOM =  11918.0
  HRU     933 SUB  39 FRST  Yld =  3666.1 BIOM =   5237.3
  HRU     934 SUB  39 FRST  Yld =  3816.3 BIOM =   5451.8
  HRU     935 SUB  39 FRST  Yld =  3803.4 BIOM =   5433.5
  HRU     936 SUB  39 BERM  Yld = 19271.2 BIOM =  27679.3
  HRU     937 SUB  39 BERM  Yld = 19269.6 BIOM =  27677.0
  HRU     938 SUB  39 BERM  Yld = 19265.5 BIOM =  27671.2
  HRU     939 SUB  39 BERM  Yld = 19263.6 BIOM =  27668.5
  HRU     940 SUB  40 RICE  Yld =  2850.5 BIOM =   7361.3
  HRU     941 SUB  40 RICE  Yld =  2854.4 BIOM =   7371.4
  HRU     942 SUB  40 RICE  Yld =  2861.0 BIOM =   7388.5
  HRU     943 SUB  40 RICE  Yld =  2858.2 BIOM =   7381.3
  HRU     944 SUB  40 RICE  Yld =  2880.0 BIOM =   7436.9
  HRU     945 SUB  40 RICE  Yld =  2879.7 BIOM =   7436.2
  HRU     946 SUB  40 AGRC  Yld =  3702.3 BIOM =  11982.8
  HRU     947 SUB  40 AGRC  Yld =  3705.5 BIOM =  11993.1
  HRU     948 SUB  40 AGRC  Yld =  3693.4 BIOM =  11954.0
  HRU     949 SUB  40 AGRC  Yld =  3694.6 BIOM =  11957.8
  HRU     950 SUB  40 AGRC  Yld =  3682.1 BIOM =  11917.4
  HRU     951 SUB  40 AGRC  Yld =  3686.3 BIOM =  11931.0
  HRU     952 SUB  40 FRST  Yld =  3654.7 BIOM =   5220.9
  HRU     953 SUB  40 FRST  Yld =  3632.3 BIOM =   5189.0
  HRU     954 SUB  40 FRST  Yld =  3789.0 BIOM =   5412.9
  HRU     955 SUB  40 FRST  Yld =  3811.0 BIOM =   5444.3
  HRU     956 SUB  40 BERM  Yld = 19226.9 BIOM =  27647.8
  HRU     957 SUB  41 RICE  Yld =  2851.3 BIOM =   7363.6
  HRU     958 SUB  41 RICE  Yld =  2854.3 BIOM =   7371.1
  HRU     959 SUB  41 RICE  Yld =  2852.8 BIOM =   7367.4
  HRU     960 SUB  41 RICE  Yld =  2852.2 BIOM =   7365.9
  HRU     961 SUB  41 RICE  Yld =  2861.5 BIOM =   7389.7
  HRU     962 SUB  41 RICE  Yld =  2878.3 BIOM =   7432.8
  HRU     963 SUB  41 RICE  Yld =  2880.9 BIOM =   7439.2
  HRU     964 SUB  41 RICE  Yld =  2880.0 BIOM =   7437.0
  HRU     965 SUB  41 AGRC  Yld =  3705.9 BIOM =  11994.2
  HRU     966 SUB  41 AGRC  Yld =  3704.1 BIOM =  11988.6
  HRU     967 SUB  41 AGRC  Yld =  3686.9 BIOM =  11933.0
  HRU     968 SUB  41 AGRC  Yld =  3683.2 BIOM =  11921.0
  HRU     969 SUB  41 FRST  Yld =  3039.9 BIOM =   4342.7
  HRU     970 SUB  41 FRST  Yld =  3086.6 BIOM =   4409.5
  HRU     971 SUB  41 FRST  Yld =  3036.1 BIOM =   4337.3
  HRU     972 SUB  41 FRST  Yld =  3816.5 BIOM =   5452.2
  HRU     973 SUB  41 FRST  Yld =  3968.9 BIOM =   5669.9
  HRU     974 SUB  41 FRST  Yld =  3872.9 BIOM =   5532.7
  HRU     975 SUB  41 BERM  Yld = 19231.1 BIOM =  27653.7
  HRU     976 SUB  41 BERM  Yld = 19220.8 BIOM =  27638.9
  HRU     977 SUB  41 BERM  Yld = 19216.3 BIOM =  27632.4
  HRU     978 SUB  41 BERM  Yld = 19227.7 BIOM =  27649.0
  HRU     979 SUB  42 RICE  Yld =  2865.2 BIOM =   7399.0
  HRU     980 SUB  42 RICE  Yld =  2857.8 BIOM =   7379.7
  HRU     981 SUB  42 RICE  Yld =  2855.0 BIOM =   7372.3
  HRU     982 SUB  42 RICE  Yld =  2875.0 BIOM =   7423.7
  HRU     983 SUB  42 RICE  Yld =  2868.9 BIOM =   7407.9
  HRU     984 SUB  42 RICE  Yld =  2870.7 BIOM =   7412.5
  HRU     985 SUB  42 AGRC  Yld =  3671.5 BIOM =  11883.1
  HRU     986 SUB  42 AGRC  Yld =  3667.0 BIOM =  11868.3
  HRU     987 SUB  42 AGRC  Yld =  3670.8 BIOM =  11880.8
  HRU     988 SUB  42 AGRC  Yld =  3698.8 BIOM =  11971.5
  HRU     989 SUB  42 AGRC  Yld =  3689.3 BIOM =  11940.6
  HRU     990 SUB  42 FRST  Yld =  2999.8 BIOM =   4285.5
  HRU     991 SUB  42 FRST  Yld =  3033.9 BIOM =   4334.2
  HRU     992 SUB  42 FRST  Yld =  2999.6 BIOM =   4285.2
  HRU     993 SUB  42 FRST  Yld =  3858.8 BIOM =   5512.6
  HRU     994 SUB  42 FRST  Yld =  3735.9 BIOM =   5337.0
  HRU     995 SUB  42 FRST  Yld =  3740.8 BIOM =   5344.0
  HRU     996 SUB  42 WATR  Yld =     0.0 BIOM =      0.0
  HRU     997 SUB  42 WATR  Yld =     0.0 BIOM =      0.0
  HRU     998 SUB  42 WATR  Yld =     0.0 BIOM =      0.0
  HRU     999 SUB  42 WATR  Yld =     0.0 BIOM =      0.0
  HRU    1000 SUB  42 WATR  Yld =     0.0 BIOM =      0.0
  HRU    1001 SUB  42 BERM  Yld = 19215.5 BIOM =  27631.4
  HRU    1002 SUB  42 BERM  Yld = 19200.9 BIOM =  27610.4
  HRU    1003 SUB  42 BERM  Yld = 19205.7 BIOM =  27617.4
  HRU    1004 SUB  42 BERM  Yld = 19195.5 BIOM =  27602.7
  HRU    1005 SUB  42 BERM  Yld = 19222.6 BIOM =  27641.7
  HRU    1006 SUB  42 BERM  Yld = 19228.0 BIOM =  27649.5
  HRU    1007 SUB  42 BERM  Yld = 19225.0 BIOM =  27645.2
  HRU    1008 SUB  42 BERM  Yld = 19117.7 BIOM =  27491.0
  HRU    1009 SUB  42 BERM  Yld = 19119.7 BIOM =  27493.9
  HRU    1010 SUB  42 BERM  Yld = 19211.6 BIOM =  27626.0
  HRU    1011 SUB  42 BERM  Yld = 19214.8 BIOM =  27630.6
  HRU    1012 SUB  42 BERM  Yld = 19228.7 BIOM =  27650.6
  HRU    1013 SUB  42 BERM  Yld = 15732.9 BIOM =  22584.7
  HRU    1014 SUB  42 BERM  Yld = 14999.2 BIOM =  21515.0
  HRU    1015 SUB  42 BERM  Yld = 16480.7 BIOM =  23680.0
  HRU    1016 SUB  43 RICE  Yld =  2851.3 BIOM =   7363.2
  HRU    1017 SUB  43 RICE  Yld =  2842.0 BIOM =   7339.3
  HRU    1018 SUB  43 RICE  Yld =  2877.4 BIOM =   7430.2
  HRU    1019 SUB  43 RICE  Yld =  2869.7 BIOM =   7410.2
  HRU    1020 SUB  43 RICE  Yld =  2874.0 BIOM =   7421.2
  HRU    1021 SUB  43 AGRC  Yld =  3693.6 BIOM =  11954.4
  HRU    1022 SUB  43 AGRC  Yld =  3697.1 BIOM =  11966.0
  HRU    1023 SUB  43 AGRC  Yld =  3668.0 BIOM =  11871.8
  HRU    1024 SUB  43 AGRC  Yld =  3677.3 BIOM =  11901.7
  HRU    1025 SUB  43 AGRC  Yld =  3661.6 BIOM =  11851.1
  HRU    1026 SUB  43 AGRC  Yld =  3697.6 BIOM =  11967.6
  HRU    1027 SUB  43 AGRC  Yld =  3695.0 BIOM =  11959.1
  HRU    1028 SUB  43 FRST  Yld =  3646.8 BIOM =   5209.7
  HRU    1029 SUB  43 FRST  Yld =  3726.6 BIOM =   5323.7
  HRU    1030 SUB  43 FRST  Yld =  3610.7 BIOM =   5158.1
  HRU    1031 SUB  43 FRST  Yld =  2998.2 BIOM =   4283.1
  HRU    1032 SUB  43 FRST  Yld =  3041.9 BIOM =   4345.6
  HRU    1033 SUB  43 FRST  Yld =  3002.8 BIOM =   4289.7
  HRU    1034 SUB  43 FRST  Yld =  3941.2 BIOM =   5630.4
  HRU    1035 SUB  43 FRST  Yld =  4057.0 BIOM =   5795.7
  HRU    1036 SUB  43 FRST  Yld =  3809.8 BIOM =   5442.6
  HRU    1037 SUB  43 FRST  Yld =  3398.4 BIOM =   4854.8
  HRU    1038 SUB  43 FRST  Yld =  3545.8 BIOM =   5065.5
  HRU    1039 SUB  43 FRST  Yld =  3477.0 BIOM =   4967.2
  HRU    1040 SUB  43 FRST  Yld =  3767.7 BIOM =   5382.4
  HRU    1041 SUB  43 FRST  Yld =  3765.5 BIOM =   5379.3
  HRU    1042 SUB  43 FRST  Yld =  3890.0 BIOM =   5557.1
  HRU    1043 SUB  43 FRST  Yld =  2366.8 BIOM =   3381.1
  HRU    1044 SUB  43 FRST  Yld =  2470.3 BIOM =   3529.0
  HRU    1045 SUB  43 FRST  Yld =  2402.4 BIOM =   3432.0
  HRU    1046 SUB  43 FRST  Yld =  3077.7 BIOM =   4396.7
  HRU    1047 SUB  43 FRST  Yld =  2985.4 BIOM =   4264.9
  HRU    1048 SUB  43 FRST  Yld =  2895.5 BIOM =   4136.4
  HRU    1049 SUB  43 PAST  Yld =   401.5 BIOM =    575.4
  HRU    1050 SUB  43 PAST  Yld =   409.9 BIOM =    587.6
  HRU    1051 SUB  43 PAST  Yld =   523.1 BIOM =    749.9
  HRU    1052 SUB  43 PAST  Yld =   507.8 BIOM =    727.9
  HRU    1053 SUB  43 PAST  Yld =   541.4 BIOM =    776.1
  HRU    1054 SUB  43 PAST  Yld =   475.6 BIOM =    681.7
  HRU    1055 SUB  43 PAST  Yld =   462.1 BIOM =    662.3
  HRU    1056 SUB  43 PAST  Yld =   310.2 BIOM =    444.6
  HRU    1057 SUB  43 PAST  Yld =   321.6 BIOM =    460.9
  HRU    1058 SUB  43 PAST  Yld =   300.4 BIOM =    430.5
  HRU    1059 SUB  43 WATR  Yld =     0.0 BIOM =      0.0
  HRU    1060 SUB  43 WATR  Yld =     0.0 BIOM =      0.0
  HRU    1061 SUB  43 WATR  Yld =     0.0 BIOM =      0.0
  HRU    1062 SUB  43 WATR  Yld =     0.0 BIOM =      0.0
  HRU    1063 SUB  43 BERM  Yld = 19136.7 BIOM =  27486.3
  HRU    1064 SUB  43 BERM  Yld = 19139.0 BIOM =  27489.5
  HRU    1065 SUB  44 RICE  Yld =  2851.0 BIOM =   7362.7
  HRU    1066 SUB  44 RICE  Yld =  2854.4 BIOM =   7371.6
  HRU    1067 SUB  44 RICE  Yld =  2849.1 BIOM =   7357.9
  HRU    1068 SUB  44 RICE  Yld =  2861.0 BIOM =   7388.3
  HRU    1069 SUB  44 RICE  Yld =  2867.6 BIOM =   7405.5
  HRU    1070 SUB  44 RICE  Yld =  2876.9 BIOM =   7429.2
  HRU    1071 SUB  44 RICE  Yld =  2879.9 BIOM =   7436.8
  HRU    1072 SUB  44 RICE  Yld =  2879.9 BIOM =   7436.6
  HRU    1073 SUB  44 RICE  Yld =  2861.7 BIOM =   7390.8
  HRU    1074 SUB  44 RICE  Yld =  2866.9 BIOM =   7404.2
  HRU    1075 SUB  44 RICE  Yld =  2855.7 BIOM =   7375.4
  HRU    1076 SUB  44 AGRC  Yld =  3706.1 BIOM =  11995.0
  HRU    1077 SUB  44 AGRC  Yld =  3704.2 BIOM =  11988.9
  HRU    1078 SUB  44 AGRC  Yld =  3694.7 BIOM =  11958.0
  HRU    1079 SUB  44 AGRC  Yld =  3692.1 BIOM =  11949.8
  HRU    1080 SUB  44 AGRC  Yld =  3689.4 BIOM =  11941.1
  HRU    1081 SUB  44 FRST  Yld =  3650.2 BIOM =   5214.6
  HRU    1082 SUB  44 FRST  Yld =  3654.7 BIOM =   5221.0
  HRU    1083 SUB  44 FRST  Yld =  3035.7 BIOM =   4336.7
  HRU    1084 SUB  44 FRST  Yld =  3081.6 BIOM =   4402.3
  HRU    1085 SUB  44 FRST  Yld =  3035.3 BIOM =   4336.2
  HRU    1086 SUB  44 FRST  Yld =  3958.5 BIOM =   5655.0
  HRU    1087 SUB  44 FRST  Yld =  3813.7 BIOM =   5448.1
  HRU    1088 SUB  44 FRST  Yld =  3811.1 BIOM =   5444.4
  HRU    1089 SUB  44 FRST  Yld =  2490.0 BIOM =   3557.1
  HRU    1090 SUB  44 FRST  Yld =  2422.9 BIOM =   3461.4
  HRU    1091 SUB  44 FRST  Yld =  2395.5 BIOM =   3422.1
  HRU    1092 SUB  44 WATR  Yld =     0.0 BIOM =      0.0
  HRU    1093 SUB  44 WATR  Yld =     0.0 BIOM =      0.0
  HRU    1094 SUB  44 WATR  Yld =     0.0 BIOM =      0.0
  HRU    1095 SUB  44 WATR  Yld =     0.0 BIOM =      0.0
  HRU    1096 SUB  44 WATR  Yld =     0.0 BIOM =      0.0
  HRU    1097 SUB  44 WATR  Yld =     0.0 BIOM =      0.0
  HRU    1098 SUB  44 WATR  Yld =     0.0 BIOM =      0.0
  HRU    1099 SUB  44 WATR  Yld =     0.0 BIOM =      0.0
  HRU    1100 SUB  44 WATR  Yld =     0.0 BIOM =      0.0
  HRU    1101 SUB  44 WATR  Yld =     0.0 BIOM =      0.0
  HRU    1102 SUB  44 BERM  Yld = 19225.3 BIOM =  27645.5
  HRU    1103 SUB  44 BERM  Yld = 19226.6 BIOM =  27647.4
  HRU    1104 SUB  44 BERM  Yld = 19221.5 BIOM =  27640.2
  HRU    1105 SUB  45 RICE  Yld =  2855.1 BIOM =   7373.4
  HRU    1106 SUB  45 RICE  Yld =  2851.3 BIOM =   7363.4
  HRU    1107 SUB  45 RICE  Yld =  2861.4 BIOM =   7389.5
  HRU    1108 SUB  45 RICE  Yld =  2853.4 BIOM =   7369.0
  HRU    1109 SUB  45 RICE  Yld =  2843.1 BIOM =   7342.3
  HRU    1110 SUB  45 RICE  Yld =  2879.7 BIOM =   7436.3
  HRU    1111 SUB  45 RICE  Yld =  2880.4 BIOM =   7437.8
  HRU    1112 SUB  45 RICE  Yld =  2882.0 BIOM =   7442.3
  HRU    1113 SUB  45 AGRC  Yld =  3694.4 BIOM =  11957.3
  HRU    1114 SUB  45 AGRC  Yld =  3691.0 BIOM =  11946.1
  HRU    1115 SUB  45 AGRC  Yld =  3684.5 BIOM =  11925.3
  HRU    1116 SUB  45 AGRC  Yld =  3687.8 BIOM =  11936.1
  HRU    1117 SUB  45 FRST  Yld =  3654.7 BIOM =   5221.0
  HRU    1118 SUB  45 FRST  Yld =  3768.5 BIOM =   5383.6
  HRU    1119 SUB  45 FRST  Yld =  3691.9 BIOM =   5274.1
[...]
   2880 131   ATc-1160   .349E+00   84.00  201.00    1.03    0.00    0.00    0.00    0.20    0.00    0.00    0.00    0.00    0.00    0.00    0.00    0.00    0.00    0.00
   2881 131   ACh-1180   .465E+00   79.00  133.00   10.41    0.00    0.00    0.00    0.20    0.00    0.00    0.00    0.00    0.00    0.00    0.00    0.00    0.00    0.00
   2882 131   ACh-1180   .179E+02   79.00  133.00    3.55    0.00    0.00    0.00    0.20    0.00    0.00    0.00    0.00    0.00    0.00    0.00    0.00    0.00    0.00
   2883 131   ACh-1180   .463E+01   79.00  133.00    1.00    0.00    0.00    0.00    0.20    0.00    0.00    0.00    0.00    0.00    0.00    0.00    0.00    0.00    0.00
   2884 131   ATc-1160   .240E+00   79.00  201.00   10.65    0.00    0.00    0.00    0.20    0.00    0.00    0.00    0.00    0.00    0.00    0.00    0.00    0.00    0.00
   2885 131   ATc-1160   .732E+01   79.00  201.00    3.65    0.00    0.00    0.00    0.20    0.00    0.00    0.00    0.00    0.00    0.00    0.00    0.00    0.00    0.00
   2886 131   ATc-1160   .227E+01   79.00  201.00    0.96    0.00    0.00    0.00    0.20    0.00    0.00    0.00    0.00    0.00    0.00    0.00    0.00    0.00    0.00
   2887 131   ACh-1180   .204E+00   94.96  133.00    1.00    0.00    0.00    0.00    0.20    0.00    0.00    0.00    0.00    0.00    0.00    0.00    0.00    0.00    0.00
   2888 131   ACh-1180   .479E+00   94.96  133.00    3.07    0.00    0.00    0.00    0.20    0.00    0.00    0.00    0.00    0.00    0.00    0.00    0.00    0.00    0.00
   2889 131   ATc-1160   .494E-01   94.96  201.00    1.15    0.00    0.00    0.00    0.20    0.00    0.00    0.00    0.00    0.00    0.00    0.00    0.00    0.00    0.00
   2890 131   ATc-1160   .149E+00   94.96  201.00    2.54    0.00    0.00    0.00    0.20    0.00    0.00    0.00    0.00    0.00    0.00    0.00    0.00    0.00    0.00
   2891 132   ACh-1180   .768E-01   84.00  133.00    4.73    0.00    0.00    0.00    0.20    0.00    0.00    0.00    0.00    0.00    0.00    0.00    0.00    0.00    0.00
   2892 132   ACh-1180   .795E-02   84.00  133.00    1.00    0.00    0.00    0.00    0.20    0.00    0.00    0.00    0.00    0.00    0.00    0.00    0.00    0.00    0.00
   2893 132   ACh-1180   .106E-01   84.00  133.00   11.18    0.00    0.00    0.00    0.20    0.00    0.00    0.00    0.00    0.00    0.00    0.00    0.00    0.00    0.00
   2894 132   ATc-1160   .318E-01   84.00  201.00    1.05    0.00    0.00    0.00    0.20    0.00    0.00    0.00    0.00    0.00    0.00    0.00    0.00    0.00    0.00
   2895 132   ATc-1160   .198E+00   84.00  201.00   10.83    0.00    0.00    0.00    0.20    0.00    0.00    0.00    0.00    0.00    0.00    0.00    0.00    0.00    0.00
   2896 132   ATc-1160   .667E+00   84.00  201.00    4.59    0.00    0.00    0.00    0.20    0.00    0.00    0.00    0.00    0.00    0.00    0.00    0.00    0.00    0.00
   2897 132   ACh-1180   .116E+02   79.00  133.00   11.37    0.00    0.00    0.00    0.20    0.00    0.00    0.00    0.00    0.00    0.00    0.00    0.00    0.00    0.00
   2898 132   ACh-1180   .383E+02   79.00  133.00    4.55    0.00    0.00    0.00    0.20    0.00    0.00    0.00    0.00    0.00    0.00    0.00    0.00    0.00    0.00
   2899 132   ACh-1180   .168E+01   79.00  133.00    1.10    0.00    0.00    0.00    0.20    0.00    0.00    0.00    0.00    0.00    0.00    0.00    0.00    0.00    0.00
   2900 132   ACu-1181   .265E-01   73.00  119.00    9.71    0.00    0.00    0.00    0.20    0.00    0.00    0.00    0.00    0.00    0.00    0.00    0.00    0.00    0.00
   2901 132   ACu-1181   .884E-03   73.00  119.00    1.13    0.00    0.00    0.00    0.20    0.00    0.00    0.00    0.00    0.00    0.00    0.00    0.00    0.00    0.00
   2902 132   ACu-1181   .257E+00   73.00  119.00    4.80    0.00    0.00    0.00    0.20    0.00    0.00    0.00    0.00    0.00    0.00    0.00    0.00    0.00    0.00
   2903 132   ATc-1160   .455E+00   79.00  201.00    1.13    0.00    0.00    0.00    0.20    0.00    0.00    0.00    0.00    0.00    0.00    0.00    0.00    0.00    0.00
   2904 132   ATc-1160   .185E+01   79.00  201.00   11.45    0.00    0.00    0.00    0.20    0.00    0.00    0.00    0.00    0.00    0.00    0.00    0.00    0.00    0.00
   2905 132   ATc-1160   .713E+01   79.00  201.00    4.19    0.00    0.00    0.00    0.20    0.00    0.00    0.00    0.00    0.00    0.00    0.00    0.00    0.00    0.00
   2906 132   CMo-1183   .279E+01   73.00  116.00   12.22    0.00    0.00    0.00    0.20    0.00    0.00    0.00    0.00    0.00    0.00    0.00    0.00    0.00    0.00
   2907 132   CMo-1183   .118E+00   73.00  116.00    1.20    0.00    0.00    0.00    0.20    0.00    0.00    0.00    0.00    0.00    0.00    0.00    0.00    0.00    0.00
   2908 132   CMo-1183   .437E+01   73.00  116.00    4.89    0.00    0.00    0.00    0.20    0.00    0.00    0.00    0.00    0.00    0.00    0.00    0.00    0.00    0.00
   2909 132   UR-11925   .265E-02   36.00   10.00    3.45    0.00    0.00    0.00    0.20    0.00    0.00    0.00    0.00    0.00    0.00    0.00    0.00    0.00    0.00
   2910 132   ACh-1180   .265E-02   84.00  133.00    0.89    0.00    0.00    0.00    0.20    0.00    0.00    0.00    0.00    0.00    0.00    0.00    0.00    0.00    0.00
   2911 132   ACh-1180   .582E-01   84.00  133.00    4.43    0.00    0.00    0.00    0.20    0.00    0.00    0.00    0.00    0.00    0.00    0.00    0.00    0.00    0.00
   2912 132   ACh-1180   .600E-01   84.00  133.00   12.09    0.00    0.00    0.00    0.20    0.00    0.00    0.00    0.00    0.00    0.00    0.00    0.00    0.00    0.00
   2913 132   CMo-1183   .266E+00   79.00  116.00   12.06    0.00    0.00    0.00    0.20    0.00    0.00    0.00    0.00    0.00    0.00    0.00    0.00    0.00    0.00
   2914 132   CMo-1183   .705E+00   79.00  116.00    4.66    0.00    0.00    0.00    0.20    0.00    0.00    0.00    0.00    0.00    0.00    0.00    0.00    0.00    0.00
   2915 132   CMo-1183   .291E-01   79.00  116.00    0.96    0.00    0.00    0.00    0.20    0.00    0.00    0.00    0.00    0.00    0.00    0.00    0.00    0.00    0.00
   2916 132   ACh-1180   .135E+00   92.00  133.00   11.05    0.00    0.00    0.00    0.20    0.00    0.00    0.00 1423.01    0.00    0.00    0.00    0.00    0.00    0.00
   2917 132   ACh-1180   .397E-01   92.00  133.00    1.03    0.00    0.00    0.00    0.20    0.00    0.00    0.00 1423.01    0.00    0.00    0.00    0.00    0.00    0.00
   2918 132   ACh-1180   .606E+00   92.00  133.00    4.30    0.00    0.00    0.00    0.20    0.00    0.00    0.00 1423.01    0.00    0.00    0.00    0.00    0.00    0.00
   2919 132   ATc-1160   .104E+00   92.00  201.00   11.66    0.00    0.00    0.00    0.20    0.00    0.00    0.00 1423.01    0.00    0.00    0.00    0.00    0.00    0.00
   2920 132   ATc-1160   .485E-01   92.00  201.00    1.10    0.00    0.00    0.00    0.20    0.00    0.00    0.00 1423.01    0.00    0.00    0.00    0.00    0.00    0.00
   2921 132   ATc-1160   .365E+00   92.00  201.00    3.35    0.00    0.00    0.00    0.20    0.00    0.00    0.00 1423.01    0.00    0.00    0.00    0.00    0.00    0.00
   2922 132   CMo-1183   .593E+00   92.00  116.00    2.99    0.00    0.00    0.00    0.20    0.00    0.00    0.00 1423.01    0.00    0.00    0.00    0.00    0.00    0.00
   2923 132   CMo-1183   .291E-01   92.00  116.00   10.35    0.00    0.00    0.00    0.20    0.00    0.00    0.00 1423.01    0.00    0.00    0.00    0.00    0.00    0.00
   2924 132   CMo-1183   .865E-01   92.00  116.00    1.15    0.00    0.00    0.00    0.20    0.00    0.00    0.00 1423.01    0.00    0.00    0.00    0.00    0.00    0.00
   2925 132   ATc-1160   .884E-03   81.09  201.00    8.78    0.00    0.00    0.00    0.20    0.00    0.00    0.00    0.00    0.00    0.00    0.00    0.00    0.00    0.00
   2926 132   ATc-1160   .609E-01   81.09  201.00    3.27    0.00    0.00    0.00    0.20    0.00    0.00    0.00    0.00    0.00    0.00    0.00    0.00    0.00    0.00
   2927 132   ATc-1160   .441E-02   81.09  201.00    0.93    0.00    0.00    0.00    0.20    0.00    0.00    0.00    0.00    0.00    0.00    0.00    0.00    0.00    0.00
   2928 132   CMo-1183   .771E+00   74.86  116.00    3.44    0.00    0.00    0.00    0.20    0.00    0.00    0.00    0.00    0.00    0.00    0.00    0.00    0.00    0.00
   2929 132   CMo-1183   .838E-01   74.86  116.00   10.49    0.00    0.00    0.00    0.20    0.00    0.00    0.00    0.00    0.00    0.00    0.00    0.00    0.00    0.00
   2930 132   CMo-1183   .732E-01   74.86  116.00    1.03    0.00    0.00    0.00    0.20    0.00    0.00    0.00    0.00    0.00    0.00    0.00    0.00    0.00    0.00
   2931 133   ACh-1180   .176E-02   84.00  133.00    0.82    0.00    0.00    0.00    0.20    0.00    0.00    0.00    0.00    0.00    0.00    0.00    0.00    0.00    0.00
   2932 133   ACh-1180   .856E-01   84.00  133.00    4.89    0.00    0.00    0.00    0.20    0.00    0.00    0.00    0.00    0.00    0.00    0.00    0.00    0.00    0.00
   2933 133   ACh-1180   .247E-01   84.00  133.00   11.24    0.00    0.00    0.00    0.20    0.00    0.00    0.00    0.00    0.00    0.00    0.00    0.00    0.00    0.00
   2934 133   ATc-1160   .884E-03   84.00  201.00   11.42    0.00    0.00    0.00    0.20    0.00    0.00    0.00    0.00    0.00    0.00    0.00    0.00    0.00    0.00
   2935 133   ATc-1160   .265E-02   84.00  201.00    7.26    0.00    0.00    0.00    0.20    0.00    0.00    0.00    0.00    0.00    0.00    0.00    0.00    0.00    0.00
   2936 133   ACh-1180   .212E+02   79.00  133.00    4.64    0.00    0.00    0.00    0.20    0.00    0.00    0.00    0.00    0.00    0.00    0.00    0.00    0.00    0.00
   2937 133   ACh-1180   .154E+01   79.00  133.00    0.70    0.00    0.00    0.00    0.20    0.00    0.00    0.00    0.00    0.00    0.00    0.00    0.00    0.00    0.00
   2938 133   ACh-1180   .679E+01   79.00  133.00   11.58    0.00    0.00    0.00    0.20    0.00    0.00    0.00    0.00    0.00    0.00    0.00    0.00    0.00    0.00
   2939 133   ATc-1160   .458E+01   79.00  201.00    4.39    0.00    0.00    0.00    0.20    0.00    0.00    0.00    0.00    0.00    0.00    0.00    0.00    0.00    0.00
   2940 133   ATc-1160   .101E+01   79.00  201.00   10.97    0.00    0.00    0.00    0.20    0.00    0.00    0.00    0.00    0.00    0.00    0.00    0.00    0.00    0.00
   2941 133   ATc-1160   .310E+00   79.00  201.00    1.03    0.00    0.00    0.00    0.20    0.00    0.00    0.00    0.00    0.00    0.00    0.00    0.00    0.00    0.00
   2942 133   UR-11925   .291E-01   36.00   10.00   10.14    0.00    0.00    0.00    0.20    0.00    0.00    0.00    0.00    0.00    0.00    0.00    0.00    0.00    0.00
   2943 133   UR-11925   .816E+00   36.00   10.00    0.16    0.00    0.00    0.00    0.20    0.00    0.00    0.00    0.00    0.00    0.00    0.00    0.00    0.00    0.00
   2944 133   UR-11925   .734E+00   36.00   10.00    3.35    0.00    0.00    0.00    0.20    0.00    0.00    0.00    0.00    0.00    0.00    0.00    0.00    0.00    0.00
   2945 133   ACh-1180   .160E+00   84.00  133.00   11.10    0.00    0.00    0.00    0.20    0.00    0.00    0.00    0.00    0.00    0.00    0.00    0.00    0.00    0.00
   2946 133   ACh-1180   .701E+00   84.00  133.00    4.64    0.00    0.00    0.00    0.20    0.00    0.00    0.00    0.00    0.00    0.00    0.00    0.00    0.00    0.00
   2947 133   ACh-1180   .221E-01   84.00  133.00    1.20    0.00    0.00    0.00    0.20    0.00    0.00    0.00    0.00    0.00    0.00    0.00    0.00    0.00    0.00
   2948 133   ACh-1180   .746E+00   92.00  133.00    3.60    0.00    0.00    0.00    0.20    0.00    0.00    0.00 1423.01    0.00    0.00    0.00    0.00    0.00    0.00
   2949 133   ACh-1180   .485E-01   92.00  133.00    9.74    0.00    0.00    0.00    0.20    0.00    0.00    0.00 1423.01    0.00    0.00    0.00    0.00    0.00    0.00
   2950 133   ACh-1180   .812E-01   92.00  133.00    0.82    0.00    0.00    0.00    0.20    0.00    0.00    0.00 1423.01    0.00    0.00    0.00    0.00    0.00    0.00
   2951 133   ATc-1160   .529E-02   92.00  201.00   10.03    0.00    0.00    0.00    0.20    0.00    0.00    0.00 1423.01    0.00    0.00    0.00    0.00    0.00    0.00
   2952 133   ATc-1160   .168E+00   92.00  201.00    3.39    0.00    0.00    0.00    0.20    0.00    0.00    0.00 1423.01    0.00    0.00    0.00    0.00    0.00    0.00
   2953 133   ATc-1160   .150E-01   92.00  201.00    0.98    0.00    0.00    0.00    0.20    0.00    0.00    0.00 1423.01    0.00    0.00    0.00    0.00    0.00    0.00
   2954 133   UR-11925   .731E+00   92.00   10.00    4.19    0.00    0.00    0.00    0.20    0.00    0.00    0.00 1423.01    0.00    0.00    0.00    0.00    0.00    0.00
   2955 133   UR-11925   .962E-01   92.00   10.00   11.32    0.00    0.00    0.00    0.20    0.00    0.00    0.00 1423.01    0.00    0.00    0.00    0.00    0.00    0.00
   2956 133   UR-11925   .111E+00   92.00   10.00    0.14    0.00    0.00    0.00    0.20    0.00    0.00    0.00 1423.01    0.00    0.00    0.00    0.00    0.00    0.00



                AVE MONTHLY BASIN VALUES
                   SNOW                      WATER               SED
  MON     RAIN     FALL   SURF Q    LAT Q    YIELD       ET    YIELD      PET
          (MM)     (MM)     (MM)     (MM)     (MM)     (MM)   (T/HA)     (MM)
    1    34.66     2.06     4.25     3.12    19.04    17.69     0.16    39.42
    2    91.42     2.66    17.71     5.19    34.08    23.35     1.60    40.04
    3   169.84     0.00    55.09    13.43    96.27    41.11     9.83    73.02
    4   146.30     0.00    49.62    10.84    99.46    51.58     7.39    98.99
    5   256.78     0.00   102.80    16.09   164.01    70.94    13.58   114.48
    6   203.82     0.00    80.83    12.96   142.39    77.70     4.37   127.42
    7   148.43     0.00    57.29    10.66   111.51    84.82     1.42   156.43
    8    99.14     0.00    25.17     5.94    59.72    66.58     0.33   142.02
    9    64.36     0.00    10.45     3.40    26.46    45.11     0.11   110.03
   10    38.83     0.00     5.24     1.86    11.65    24.65     0.10    93.62
   11   113.77     0.00    27.24     7.58    41.84    24.07     0.74    47.48
   12    50.21     2.03     9.25     5.94    33.33    19.48     0.38    39.23

     AVE ANNUAL BASIN STRESS DAYS
               WATER STRESS DAYS =    31.44
               TEMPERATURE STRESS DAYS =     9.11
               NITROGEN STRESS DAYS =    59.68
               PHOSPHORUS STRESS DAYS =     0.76
               AERATION STRESS DAYS =     0.00
1
    SWAT Dec 11 2014    VER 2012/Rev 635                                            

    General Input/Output section (file.cio):                                        
    2020/9/9 0:00:00 ARCGIS-SWAT interface AV                                       
                                                                                    
         AVE ANNUAL BASIN VALUES

              PRECIP =   1417.7 MM
              SNOW FALL =    6.79 MM
              SNOW MELT =     6.76 MM
              SUBLIMATION =     0.03 MM
              SURFACE RUNOFF Q =   444.84 MM
              LATERAL SOIL Q =   97.01 MM
              TILE Q =     0.00 MM
              GROUNDWATER (SHAL AQ) Q =   282.56 MM
              GROUNDWATER (DEEP AQ) Q =    15.24 MM
              REVAP (SHAL AQ => SOIL/PLANTS) =   21.01 MM
              DEEP AQ RECHARGE =    15.99 MM
              TOTAL AQ RECHARGE =  319.75 MM
              TOTAL WATER YLD =   839.65 MM
              PERCOLATION OUT OF SOIL =  326.47 MM
              ET =    547.1 MM
              PET =   1082.1MM
              TRANSMISSION LOSSES =     0.00 MM
              SEPTIC INFLOW =       0.00 MM
              TOTAL SEDIMENT LOADING =    40.015 T/HA
              TILE FROM IMPOUNDED WATER =     0.000 (MM)
              EVAPORATION FROM IMPOUNDED WATER =     0.000 (MM)
              SEEPAGE INTO SOIL FROM IMPOUNDED WATER =    0.000 (MM)
              OVERFLOW FROM IMPOUNDED WATER =    0.000 (MM)
1
    SWAT Dec 11 2014    VER 2012/Rev 635                                            

    General Input/Output section (file.cio):                                        
    2020/9/9 0:00:00 ARCGIS-SWAT interface AV                                       
                                                                                    
              AVE ANNUAL BASIN VALUES


              NUTRIENTS
                   ORGANIC N =    13.207 (KG/HA)
                   ORGANIC P =     1.776 (KG/HA)
                   NO3 YIELD (SQ) =     1.235 (KG/HA)
                   NO3 YIELD (LAT) =    0.236 (KG/HA)
                   NO3 YIELD (TILE) =    0.000 (KG/HA)
                   SOLP YIELD (TILE) =    0.000(KG/HA)
                   SOLP YIELD (SURF INLET RISER) =    0.000 (KG/HA)
                   SOL P YIELD =    0.038 (KG/HA)
                   NO3 LEACHED =     8.530 (KG/HA)
                   P LEACHED =     0.134 (KG/HA)
                   N UPTAKE =    24.160 (KG/HA)
                   P UPTAKE =    4.709 (KG/HA)
                   NO3 YIELD (GWQ) =     0.085 (KG/HA)
                   ACTIVE TO SOLUTION P FLOW =        -2.578 (KG/HA)
                   ACTIVE TO STABLE P FLOW =        -2.134 (KG/HA)
                   N FERTILIZER APPLIED =    25.322 (KG/HA)
                   P FERTILIZER APPLIED =     0.000 (KG/HA)
                   N FIXATION =     0.000 (KG/HA)
                   DENITRIFICATION =     0.161 (KG/HA)
                   HUMUS MIN ON ACTIVE ORG N =     5.065 (KG/HA)
                   ACTIVE TO STABLE ORG N =    -2.227 (KG/HA)
                   HUMUS MIN ON ACTIVE ORG P =    0.870 (KG/HA)
                   MIN FROM FRESH ORG N =    6.211 (KG/HA)
                   MIN FROM FRESH ORG P =    1.746 (KG/HA)
                   NO3 IN RAINFALL =     0.000 (KG/HA)
                   INITIAL NO3 IN SOIL =      45.197 (KG/HA)
                   FINAL NO3 IN SOIL =        14.611 (KG/HA)
                   INITIAL ORG N IN SOIL =    6082.053 (KG/HA)
                   FINAL ORG N IN SOIL =      5945.538 (KG/HA)
                   INITIAL MIN P IN SOIL =    2137.439 (KG/HA)
                   FINAL MIN P IN SOIL =      2097.523 (KG/HA)
                   INITIAL ORG P IN SOIL =     745.051 (KG/HA)
                   FINAL ORG P IN SOIL =     728.104 (KG/HA)
                   NO3 IN FERT =    25.322 (KG/HA)
                   AMMONIA IN FERT =     0.000 (KG/HA)
                   ORG N IN FERT =     0.000 (KG/HA)
                   MINERAL P IN FERT =     0.000 (KG/HA)
                   ORG P IN FERT =     0.000 (KG/HA)
                   N REMOVED IN YIELD =    17.128 (KG/HA)
                   P REMOVED IN YIELD =     2.764 (KG/HA)
                   AMMONIA VOLATILIZATION =     0.000 (KG/HA)
                   AMMONIA NITRIFICATION =      0.000 (KG/HA)
                   NO3 EVAP-LAYER 2 TO 1 =    4.097

                   DIE-GRO P Q =       0.0 (No/HA)
                   DIE-GRO LP Q =       0.0 (No/HA)
                   DIE-GRO P SED =      0.0 (No/HA)
                   DIE-GRO LP SED =      0.0 (No/HA)
                   BACT P RUNOFF =      0.0 (No/HA)
                   BACT LP RUNOFF =      0.0 (No/HA)
                   BACT P SEDIMENT =      0.0 (No/HA)
                   BACT LP SEDIMENT =      0.0 (No/HA)
                   BACT P INCORP =      0.0 (No/HA)
                   BACT LP INCORP =      0.0 (No/HA)

                   NITRATE SEPTIC =         0.00 (kg/ha)
                   AMMONIA SEPTIC =         0.00 (kg/ha)
                   ORG N SEPTIC =         0.00 (kg/ha)
                   FRESH ORGN SEPTIC =         0.00 (kg/ha)
                   ORG P SEPTIC =         0.00 (kg/ha)
                   FRESH ORGP SEPTIC =         0.00 (kg/ha)
                   SOL P SEPTIC =         0.00 (kg/ha)
                   BOD SEPTIC =         0.00 (kg/ha)
